Circuit: * C:\Users\Han Zhang\Documents\Project Files\Project 1 - Audio Amplifier\Experimental Amplifier\Engineering Docs\Base Level Sim.asc

Direct Newton iteration for .op point succeeded.
N-Period=4
Fourier components of V(v_out)
DC component:0.0113668

Harmonic	Frequency	 Fourier 	Normalized	 Phase  	Normalized
 Number 	  [Hz]   	Component	 Component	[degree]	Phase [deg]
    1   	2.000e+04	1.994e+01	1.000e+00	   -1.50°	    0.00°
    2   	4.000e+04	7.723e-03	3.874e-04	   70.60°	   72.10°
    3   	6.000e+04	1.400e-02	7.022e-04	  -98.79°	  -97.29°
    4   	8.000e+04	9.749e-04	4.891e-05	   79.69°	   81.19°
    5   	1.000e+05	6.447e-03	3.234e-04	 -105.31°	 -103.81°
    6   	1.200e+05	6.686e-04	3.354e-05	   13.24°	   14.74°
    7   	1.400e+05	5.800e-03	2.909e-04	 -126.22°	 -124.72°
    8   	1.600e+05	7.194e-04	3.609e-05	   49.87°	   51.37°
    9   	1.800e+05	4.537e-03	2.276e-04	 -125.15°	 -123.65°
   10   	2.000e+05	2.354e-04	1.181e-05	  122.38°	  123.88°
Total Harmonic Distortion: 0.094295%(0.116627%)



Date: Fri May 27 21:52:24 2016
Total elapsed time: 0.128 seconds.

tnom = 27
temp = 27
method = modified trap
totiter = 4430
traniter = 4421
tranpoints = 1807
accept = 1492
rejected = 315
matrix size = 49
fillins = 28
solver = Normal
Matrix Compiler1: 5.83 KB object code size  1.3/0.7/[0.3]
Matrix Compiler2:     396 opcodes  0.7/[0.5]/0.7


