Circuit: * C:\Users\Han Zhang\Documents\Project Files\Project 1 - Audio Amplifier\Experimental Amplifier\Engineering Docs\Darlington VAS.asc

Direct Newton iteration failed to find .op point.  (Use ".option noopiter" to skip.)
Starting Gmin stepping
Gmin = 10
Gmin = 1.07374
Gmin = 0.115292
Gmin = 0.0123794
Gmin = 0.00132923
Gmin = 0.000142725
Gmin = 1.5325e-005
vernier = 0.5
vernier = 0.25
Gmin = 4.01735e-006
vernier = 0.333333
Gmin = 1.98831e-006
vernier = 0.444444
vernier = 0.592592
Gmin = 6.44441e-007
vernier = 0.790123
vernier = 1
Gmin = 1.15494e-007
Gmin = 1.24011e-008
Gmin = 1.33156e-009
Gmin = 1.42975e-010
Gmin = 1.53518e-011
Gmin = 1.64839e-012
Gmin = 1.76994e-013
Gmin = 0
Gmin stepping succeeded in finding the operating point.

N-Period=4
Fourier components of V(v_out)
DC component:0.490692

Harmonic	Frequency	 Fourier 	Normalized	 Phase  	Normalized
 Number 	  [Hz]   	Component	 Component	[degree]	Phase [deg]
    1   	2.000e+04	1.984e+01	1.000e+00	   -2.47°	    0.00°
    2   	4.000e+04	2.408e-03	1.214e-04	  -84.89°	  -82.41°
    3   	6.000e+04	7.501e-03	3.781e-04	  -99.38°	  -96.91°
    4   	8.000e+04	1.103e-03	5.560e-05	  -59.70°	  -57.22°
    5   	1.000e+05	8.239e-03	4.153e-04	 -125.34°	 -122.87°
    6   	1.200e+05	2.038e-03	1.027e-04	  -65.16°	  -62.69°
    7   	1.400e+05	7.818e-03	3.941e-04	 -140.49°	 -138.02°
    8   	1.600e+05	1.328e-03	6.693e-05	  -39.99°	  -37.51°
    9   	1.800e+05	6.203e-03	3.126e-04	 -138.75°	 -136.28°
   10   	2.000e+05	1.671e-03	8.424e-05	  -73.51°	  -71.04°
Total Harmonic Distortion: 0.078001%(0.107423%)



Date: Fri May 27 21:54:54 2016
Total elapsed time: 0.194 seconds.

tnom = 27
temp = 27
method = modified trap
totiter = 5564
traniter = 4748
tranpoints = 1964
accept = 1633
rejected = 331
matrix size = 56
fillins = 51
solver = Normal
Matrix Compiler1: 7.42 KB object code size  1.3/0.9/[0.4]
Matrix Compiler2: 6.32 KB object code size  0.7/0.8/[0.5]


