Circuit: * C:\Users\Han Zhang\Documents\Project Files\Project 1 - Audio Amplifier\Experimental Amplifier\Engineering Docs\Draft1.asc

Limiting rise time of source v2 to 0.0001
Limiting fall time of source v2 to 0.0001
WARNING: Node NC_01 is floating.
WARNING: Node N005 is floating.
WARNING: Node NC_02 is floating.
WARNING: Node NC_03 is floating.

WARNING: Less than two connections to node NC_01.  This node is used by C2.
WARNING: Less than two connections to node N005.  This node is used by C2.
WARNING: Less than two connections to node NC_02.  This node is used by C3.
WARNING: Less than two connections to node NC_03.  This node is used by R2.
.OP point found by inspection.
Singular matrix:  Check node n005
   Iteration No. 1
Fatal Error: Singular matrix:  check node n005
   Iteration No. 1

This circuit has floating nodes.
