Circuit: * C:\Users\Han Zhang\Documents\Project Files\Project 1 - Audio Amplifier\Experimental Amplifier\Engineering Docs\Final Design.asc

.OP point found by inspection.
N-Period=4
Fourier components of V(v_out)
DC component:0.00731702

Harmonic	Frequency	 Fourier 	Normalized	 Phase  	Normalized
 Number 	  [Hz]   	Component	 Component	[degree]	Phase [deg]
    1   	2.000e+04	1.980e+01	1.000e+00	   -1.09°	    0.00°
    2   	4.000e+04	6.286e-02	3.174e-03	   21.72°	   22.80°
    3   	6.000e+04	7.369e-02	3.721e-03	  178.72°	  179.80°
    4   	8.000e+04	4.749e-02	2.398e-03	   74.14°	   75.23°
    5   	1.000e+05	4.490e-02	2.267e-03	   12.82°	   13.91°
    6   	1.200e+05	3.372e-02	1.703e-03	 -132.10°	 -131.01°
    7   	1.400e+05	5.545e-02	2.800e-03	  -83.39°	  -82.31°
    8   	1.600e+05	1.528e-02	7.717e-04	   93.22°	   94.30°
    9   	1.800e+05	2.721e-03	1.374e-04	  -39.59°	  -38.51°
   10   	2.000e+05	8.138e-03	4.109e-04	   54.46°	   55.55°
Total Harmonic Distortion: 0.680727%(0.718555%)



Date: Sat Dec 31 22:51:07 2016
Total elapsed time: 25.586 seconds.

tnom = 27
temp = 27
method = modified trap
totiter = 673649
traniter = 673649
tranpoints = 206668
accept = 150138
rejected = 56530
matrix size = 84
fillins = 119
solver = Normal
Matrix Compiler1: 15.52 KB object code size  3.2/2.4/[1.3]
Matrix Compiler2: 9.90 KB object code size  1.4/2.0/[0.9]


