Circuit: * C:\Users\Han Zhang\Documents\Project Files\Project 1 - Audio Amplifier\Experimental Amplifier\Engineering Docs\Power Supply.asc

.OP point found by inspection.
Heightened Def Con from 0.0865344 to 0.0865344
Heightened Def Con from 0.0865344 to 0.0865344
Heightened Def Con from 0.0865344 to 0.0865344
Heightened Def Con from 0.0865344 to 0.0865345
Heightened Def Con from 0.0865345 to 0.0865345
Heightened Def Con from 0.0865345 to 0.0865345
Heightened Def Con from 0.0865345 to 0.0865345
Heightened Def Con from 0.0865345 to 0.0865345
Heightened Def Con from 0.0865345 to 0.0865345
Heightened Def Con from 0.0865345 to 0.0865345
Heightened Def Con from 0.0865345 to 0.0865345
Heightened Def Con from 0.0865345 to 0.0865345
Heightened Def Con from 0.0865345 to 0.0865345
Heightened Def Con from 0.0865345 to 0.0865345
Heightened Def Con from 0.0865345 to 0.0865345
Heightened Def Con from 0.0865345 to 0.0865345
Heightened Def Con from 0.0865345 to 0.0865345
Heightened Def Con from 0.0865345 to 0.0865345
Heightened Def Con from 0.0865345 to 0.0865345
Heightened Def Con from 0.0865345 to 0.0865345
Heightened Def Con from 0.0865345 to 0.0865345
Heightened Def Con from 0.0865345 to 0.0865345
Heightened Def Con from 0.0865345 to 0.0865345
Heightened Def Con from 0.0865345 to 0.0865345
Heightened Def Con from 0.0865345 to 0.0865345
Heightened Def Con from 0.0865345 to 0.0865345
Heightened Def Con from 0.0865345 to 0.0865345
Heightened Def Con from 0.0865345 to 0.0865345
Heightened Def Con from 0.0865345 to 0.0865345
Heightened Def Con from 0.0865345 to 0.0865345
Heightened Def Con from 0.0865345 to 0.0865345
Heightened Def Con from 0.0865345 to 0.0865345
Heightened Def Con from 0.0865345 to 0.0865345
Heightened Def Con from 0.0865345 to 0.0865345
Heightened Def Con from 0.0865345 to 0.0865345
Heightened Def Con from 0.0865345 to 0.0865345
Heightened Def Con from 0.0865345 to 0.0865345
Heightened Def Con from 0.0865345 to 0.0865345
Heightened Def Con from 0.0865345 to 0.0865345
Heightened Def Con from 0.0865345 to 0.0865345
Heightened Def Con from 0.0865345 to 0.0865345
Heightened Def Con from 0.0865345 to 0.0865345
Heightened Def Con from 0.0865345 to 0.0865345
Heightened Def Con from 0.0865345 to 0.0865345
Heightened Def Con from 0.0865345 to 0.0865345
Heightened Def Con from 0.0865345 to 0.0865345
Heightened Def Con from 0.0865345 to 0.0865345
Heightened Def Con from 0.0865345 to 0.0865345
Heightened Def Con from 0.0865345 to 0.0865345
Heightened Def Con from 0.0865345 to 0.0865345
Heightened Def Con from 0.0865345 to 0.0865345
Heightened Def Con from 0.0865345 to 0.0865345
Heightened Def Con from 0.0865345 to 0.0865345
Heightened Def Con from 0.0865345 to 0.0865345
Heightened Def Con from 0.0865345 to 0.0865345
Heightened Def Con from 0.0865345 to 0.0865345
Heightened Def Con from 0.0865345 to 0.0865345
Heightened Def Con from 0.0865345 to 0.0865345
Heightened Def Con from 0.0865345 to 0.0865345
Heightened Def Con from 0.0865345 to 0.0865345
Heightened Def Con from 0.0865345 to 0.0865345
Heightened Def Con from 0.0865345 to 0.0865345
Heightened Def Con from 0.0865345 to 0.0865345
Heightened Def Con from 0.0865345 to 0.0865345
Heightened Def Con from 0.0865345 to 0.0865345
Heightened Def Con from 0.0865345 to 0.0865345
Heightened Def Con from 0.0865345 to 0.0865345
Heightened Def Con from 0.0865345 to 0.0865345
Heightened Def Con from 0.0865345 to 0.0865345
Heightened Def Con from 0.0865345 to 0.0865345
Heightened Def Con from 0.0865345 to 0.0865345
Heightened Def Con from 0.0865345 to 0.0865345
Heightened Def Con from 0.0865345 to 0.0865345
Heightened Def Con from 0.0865345 to 0.0865345
Heightened Def Con from 0.0865345 to 0.0865345
Heightened Def Con from 0.0865345 to 0.0865345
Heightened Def Con from 0.0865346 to 0.0865346
Heightened Def Con from 0.0865346 to 0.0865346
Heightened Def Con from 0.0865346 to 0.0865346
Heightened Def Con from 0.0865346 to 0.0865346
Heightened Def Con from 0.0865346 to 0.0865346
Heightened Def Con from 0.0865346 to 0.0865346
Heightened Def Con from 0.0865346 to 0.0865346
Heightened Def Con from 0.0865346 to 0.0865346
Heightened Def Con from 0.0865346 to 0.0865346
Heightened Def Con from 0.0865346 to 0.0865346
Heightened Def Con from 0.0865346 to 0.0865346
Heightened Def Con from 0.0865346 to 0.0865346
Heightened Def Con from 0.0865346 to 0.0865346
Heightened Def Con from 0.0865346 to 0.0865346
Heightened Def Con from 0.0865346 to 0.0865346
Heightened Def Con from 0.0865346 to 0.0865346
Heightened Def Con from 0.0865346 to 0.0865346
Heightened Def Con from 0.0865346 to 0.0865346
Heightened Def Con from 0.0865346 to 0.0865346
Heightened Def Con from 0.0865346 to 0.0865346
Heightened Def Con from 0.0865346 to 0.0865346
Heightened Def Con from 0.0865346 to 0.0865346
Heightened Def Con from 0.0865346 to 0.0865346
Heightened Def Con from 0.0865346 to 0.0865346
Heightened Def Con from 0.0865346 to 0.0865346
Heightened Def Con from 0.0865346 to 0.0865346
Heightened Def Con from 0.0865346 to 0.0865346
Heightened Def Con from 0.0865346 to 0.0865346
Heightened Def Con from 0.0865346 to 0.0865346
Heightened Def Con from 0.0865346 to 0.0865346
Heightened Def Con from 0.0865346 to 0.0865346
Heightened Def Con from 0.0865346 to 0.0865346
Heightened Def Con from 0.0865346 to 0.0865346
Heightened Def Con from 0.0865346 to 0.0865346
Heightened Def Con from 0.0865346 to 0.0865346
Heightened Def Con from 0.0865346 to 0.0865346
Heightened Def Con from 0.0865346 to 0.0865346
Heightened Def Con from 0.0865346 to 0.0865346
Heightened Def Con from 0.0865346 to 0.0865346
Heightened Def Con from 0.0865346 to 0.0865346
Heightened Def Con from 0.0865346 to 0.0865346
Heightened Def Con from 0.0865346 to 0.0865346
Heightened Def Con from 0.0865346 to 0.0865346
Heightened Def Con from 0.0865346 to 0.0865346
Heightened Def Con from 0.0865346 to 0.0865346
Heightened Def Con from 0.0865346 to 0.0865346
Heightened Def Con from 0.0865346 to 0.0865346
Heightened Def Con from 0.0865346 to 0.0865346
Heightened Def Con from 0.0865346 to 0.0865346
Heightened Def Con from 0.0865346 to 0.0865346
Heightened Def Con from 0.0865346 to 0.0865346
Heightened Def Con from 0.0865346 to 0.0865346
Heightened Def Con from 0.0865346 to 0.0865346
Heightened Def Con from 0.0865346 to 0.0865346
Heightened Def Con from 0.0865346 to 0.0865346
Heightened Def Con from 0.0865346 to 0.0865346
Heightened Def Con from 0.0865346 to 0.0865346
Heightened Def Con from 0.0865346 to 0.0865346
Heightened Def Con from 0.0865346 to 0.0865346
Heightened Def Con from 0.0865346 to 0.0865346
Heightened Def Con from 0.0865346 to 0.0865346
Heightened Def Con from 0.0865346 to 0.0865346
Heightened Def Con from 0.0865346 to 0.0865346
Heightened Def Con from 0.0865346 to 0.0865346
Heightened Def Con from 0.0865346 to 0.0865347
Heightened Def Con from 0.0865347 to 0.0865347
Heightened Def Con from 0.0865347 to 0.0865347
Heightened Def Con from 0.0865347 to 0.0865347
Heightened Def Con from 0.0865347 to 0.0865347
Heightened Def Con from 0.0865347 to 0.0865347
Heightened Def Con from 0.0865347 to 0.0865347
Heightened Def Con from 0.0865347 to 0.0865347
Heightened Def Con from 0.0865347 to 0.0865347
Heightened Def Con from 0.0865347 to 0.0865347
Heightened Def Con from 0.0865347 to 0.0865347
Heightened Def Con from 0.0865347 to 0.0865347
Heightened Def Con from 0.0865347 to 0.0865347
Heightened Def Con from 0.0865347 to 0.0865347
Heightened Def Con from 0.0865347 to 0.0865347
Heightened Def Con from 0.0865347 to 0.0865347
Heightened Def Con from 0.0865347 to 0.0865347
Heightened Def Con from 0.0865347 to 0.0865347
Heightened Def Con from 0.0865347 to 0.0865347
Heightened Def Con from 0.0865347 to 0.0865347
Heightened Def Con from 0.0865347 to 0.0865347
Heightened Def Con from 0.0865347 to 0.0865347
Heightened Def Con from 0.0865347 to 0.0865347
Heightened Def Con from 0.0865347 to 0.0865347
Heightened Def Con from 0.0865347 to 0.0865347
Heightened Def Con from 0.0865347 to 0.0865347
Heightened Def Con from 0.0865347 to 0.0865347
Heightened Def Con from 0.0865347 to 0.0865347
Heightened Def Con from 0.0865347 to 0.0865347
Heightened Def Con from 0.0865347 to 0.0865347
Heightened Def Con from 0.0865347 to 0.0865347
Heightened Def Con from 0.0865347 to 0.0865347
Heightened Def Con from 0.0865347 to 0.0865347
Heightened Def Con from 0.0865347 to 0.0865347
Heightened Def Con from 0.0865347 to 0.0865347
Heightened Def Con from 0.0865347 to 0.0865347
Heightened Def Con from 0.0865347 to 0.0865347
Heightened Def Con from 0.0865347 to 0.0865347
Heightened Def Con from 0.0865347 to 0.0865347
Heightened Def Con from 0.0865347 to 0.0865347
Heightened Def Con from 0.0865347 to 0.0865347
Heightened Def Con from 0.0865347 to 0.0865347
Heightened Def Con from 0.0865347 to 0.0865347
Heightened Def Con from 0.0865347 to 0.0865347
Heightened Def Con from 0.0865347 to 0.0865347
Heightened Def Con from 0.0865347 to 0.0865347
Heightened Def Con from 0.0865347 to 0.0865347
Heightened Def Con from 0.0865347 to 0.0865347
Heightened Def Con from 0.0865347 to 0.0865347
Heightened Def Con from 0.0865347 to 0.0865347
Heightened Def Con from 0.0865347 to 0.0865347
Heightened Def Con from 0.0865347 to 0.0865347
Heightened Def Con from 0.0865347 to 0.0865347
Heightened Def Con from 0.0865347 to 0.0865347
Heightened Def Con from 0.0865347 to 0.0865347
Heightened Def Con from 0.0865347 to 0.0865347
Heightened Def Con from 0.0865347 to 0.0865347
Heightened Def Con from 0.0865347 to 0.0865347
Heightened Def Con from 0.0865347 to 0.0865347
Heightened Def Con from 0.0865347 to 0.0865347
Heightened Def Con from 0.0865347 to 0.0865347
Heightened Def Con from 0.0865347 to 0.0865347
Heightened Def Con from 0.0865347 to 0.0865347
Heightened Def Con from 0.0865347 to 0.0865347
Heightened Def Con from 0.0865347 to 0.0865347
Heightened Def Con from 0.0865347 to 0.0865347
Heightened Def Con from 0.0865347 to 0.0865347
Heightened Def Con from 0.0865347 to 0.0865347
Heightened Def Con from 0.0865347 to 0.0865347
Heightened Def Con from 0.0865347 to 0.0865347
Heightened Def Con from 0.0865347 to 0.0865347
Heightened Def Con from 0.0865347 to 0.0865347
Heightened Def Con from 0.0865347 to 0.0865347
Heightened Def Con from 0.0865347 to 0.0865347
Heightened Def Con from 0.0865347 to 0.0865347
Heightened Def Con from 0.0865347 to 0.0865347
Heightened Def Con from 0.0865347 to 0.0865347
Heightened Def Con from 0.0865347 to 0.0865347
Heightened Def Con from 0.0865347 to 0.0865347
Heightened Def Con from 0.0865347 to 0.0865347
Heightened Def Con from 0.0865347 to 0.0865347
Heightened Def Con from 0.0865347 to 0.0865347
Heightened Def Con from 0.0865347 to 0.0865347
Heightened Def Con from 0.0865347 to 0.0865347
Heightened Def Con from 0.0865347 to 0.0865347
Heightened Def Con from 0.0865347 to 0.0865347
Heightened Def Con from 0.0865347 to 0.0865347
Heightened Def Con from 0.0865347 to 0.0865347
Heightened Def Con from 0.0865347 to 0.0865347
Heightened Def Con from 0.0865347 to 0.0865347
Heightened Def Con from 0.0865347 to 0.0865347
Heightened Def Con from 0.0865347 to 0.0865348
Heightened Def Con from 0.0865348 to 0.0865348
Heightened Def Con from 0.0865348 to 0.0865348
Heightened Def Con from 0.0865348 to 0.0865348
Heightened Def Con from 0.0865348 to 0.0865348
Heightened Def Con from 0.0865348 to 0.0865348
Heightened Def Con from 0.0865348 to 0.0865348
Heightened Def Con from 0.0865348 to 0.0865348
Heightened Def Con from 0.0865348 to 0.0865348
Heightened Def Con from 0.0865348 to 0.0865348
Heightened Def Con from 0.0865348 to 0.0865348
Heightened Def Con from 0.0865348 to 0.0865348
Heightened Def Con from 0.0865348 to 0.0865348
Heightened Def Con from 0.0865348 to 0.0865348
Heightened Def Con from 0.0865348 to 0.0865348
Heightened Def Con from 0.0865348 to 0.0865348
Heightened Def Con from 0.0865348 to 0.0865348
Heightened Def Con from 0.0865348 to 0.0865348
Heightened Def Con from 0.0865348 to 0.0865348
Heightened Def Con from 0.0865348 to 0.0865348
Heightened Def Con from 0.0865348 to 0.0865348
Heightened Def Con from 0.0865348 to 0.0865348
Heightened Def Con from 0.0865348 to 0.0865348
Heightened Def Con from 0.0865348 to 0.0865348
Heightened Def Con from 0.0865348 to 0.0865348
Heightened Def Con from 0.0865348 to 0.0865348
Heightened Def Con from 0.0865348 to 0.0865348
Heightened Def Con from 0.0865348 to 0.0865348
Heightened Def Con from 0.0865348 to 0.0865348
Heightened Def Con from 0.0865348 to 0.0865348
Heightened Def Con from 0.0865348 to 0.0865348
Heightened Def Con from 0.0865348 to 0.0865348
Heightened Def Con from 0.0865348 to 0.0865348
Heightened Def Con from 0.0865348 to 0.0865348
Heightened Def Con from 0.0865348 to 0.0865348
Heightened Def Con from 0.0865348 to 0.0865348
Heightened Def Con from 0.0865348 to 0.0865348
Heightened Def Con from 0.0865348 to 0.0865348
Heightened Def Con from 0.0865348 to 0.0865348
Heightened Def Con from 0.0865348 to 0.0865348
Heightened Def Con from 0.0865348 to 0.0865348
Heightened Def Con from 0.0865348 to 0.0865348
Heightened Def Con from 0.0865348 to 0.0865348
Heightened Def Con from 0.0865348 to 0.0865348
Heightened Def Con from 0.0865348 to 0.0865348
Heightened Def Con from 0.0865348 to 0.0865348
Heightened Def Con from 0.0865348 to 0.0865348
Heightened Def Con from 0.0865348 to 0.0865348
Heightened Def Con from 0.0865348 to 0.0865348
Heightened Def Con from 0.0865348 to 0.0865348
Heightened Def Con from 0.0865348 to 0.0865348
Heightened Def Con from 0.0865348 to 0.0865348
Heightened Def Con from 0.0865348 to 0.0865348
Heightened Def Con from 0.0865348 to 0.0865348
Heightened Def Con from 0.0865348 to 0.0865348
Heightened Def Con from 0.0865348 to 0.0865348
Heightened Def Con from 0.0865348 to 0.0865348
Heightened Def Con from 0.0865348 to 0.0865348
Heightened Def Con from 0.0865348 to 0.0865348
Heightened Def Con from 0.0865348 to 0.0865348
Heightened Def Con from 0.0865348 to 0.0865348
Heightened Def Con from 0.0865348 to 0.0865348
Heightened Def Con from 0.0865348 to 0.0865348
Heightened Def Con from 0.0865348 to 0.0865348
Heightened Def Con from 0.0865348 to 0.0865348
Heightened Def Con from 0.0865348 to 0.0865348
Heightened Def Con from 0.0865348 to 0.0865348
Heightened Def Con from 0.0865348 to 0.0865348
Heightened Def Con from 0.0865348 to 0.0865348
Heightened Def Con from 0.0865348 to 0.0865348
Heightened Def Con from 0.0865348 to 0.0865348
Heightened Def Con from 0.0865348 to 0.0865348
Heightened Def Con from 0.0865348 to 0.0865348
Heightened Def Con from 0.0865348 to 0.0865348
Heightened Def Con from 0.0865348 to 0.0865348
Heightened Def Con from 0.0865348 to 0.0865348
Heightened Def Con from 0.0865348 to 0.0865348
Heightened Def Con from 0.0865348 to 0.0865348
Heightened Def Con from 0.0865348 to 0.0865348
Heightened Def Con from 0.0865348 to 0.0865348
Heightened Def Con from 0.0865348 to 0.0865348
Heightened Def Con from 0.0865348 to 0.0865348
Heightened Def Con from 0.0865348 to 0.0865348
Heightened Def Con from 0.0865348 to 0.0865348
Heightened Def Con from 0.0865348 to 0.0865348
Heightened Def Con from 0.0865348 to 0.0865348
Heightened Def Con from 0.0865348 to 0.0865348
Heightened Def Con from 0.0865348 to 0.0865348
Heightened Def Con from 0.0865348 to 0.0865348
Heightened Def Con from 0.0865348 to 0.0865348
Heightened Def Con from 0.0865348 to 0.0865348
Heightened Def Con from 0.0865348 to 0.0865348
Heightened Def Con from 0.0865348 to 0.0865348
Heightened Def Con from 0.0865348 to 0.0865348
Heightened Def Con from 0.0865348 to 0.0865348
Heightened Def Con from 0.0865348 to 0.0865348
Heightened Def Con from 0.0865348 to 0.0865349
Heightened Def Con from 0.0865349 to 0.0865349
Heightened Def Con from 0.0865349 to 0.0865349
Heightened Def Con from 0.0865349 to 0.0865349
Heightened Def Con from 0.0865349 to 0.0865349
Heightened Def Con from 0.0865349 to 0.0865349
Heightened Def Con from 0.0865349 to 0.0865349
Heightened Def Con from 0.0865349 to 0.0865349
Heightened Def Con from 0.0865349 to 0.0865349
Heightened Def Con from 0.0865349 to 0.0865349
Heightened Def Con from 0.0865349 to 0.0865349
Heightened Def Con from 0.0865349 to 0.0865349
Heightened Def Con from 0.0865349 to 0.0865349
Heightened Def Con from 0.0865349 to 0.0865349
Heightened Def Con from 0.0865349 to 0.0865349
Heightened Def Con from 0.0865349 to 0.0865349
Heightened Def Con from 0.0865349 to 0.0865349
Heightened Def Con from 0.0865349 to 0.0865349
Heightened Def Con from 0.0865349 to 0.0865349
Heightened Def Con from 0.0865349 to 0.0865349
Heightened Def Con from 0.0865349 to 0.0865349
Heightened Def Con from 0.0865349 to 0.0865349
Heightened Def Con from 0.0865349 to 0.0865349
Heightened Def Con from 0.0865349 to 0.0865349
Heightened Def Con from 0.0865349 to 0.0865349
Heightened Def Con from 0.0865349 to 0.0865349
Heightened Def Con from 0.0865349 to 0.0865349
Heightened Def Con from 0.0865349 to 0.0865349
Heightened Def Con from 0.0865349 to 0.0865349
Heightened Def Con from 0.0865349 to 0.0865349
Heightened Def Con from 0.0865349 to 0.0865349
Heightened Def Con from 0.0865349 to 0.0865349
Heightened Def Con from 0.0865349 to 0.0865349
Heightened Def Con from 0.0865349 to 0.0865349
Heightened Def Con from 0.0865349 to 0.0865349
Heightened Def Con from 0.0865349 to 0.0865349
Heightened Def Con from 0.0865349 to 0.0865349
Heightened Def Con from 0.0865349 to 0.0865349
Heightened Def Con from 0.0865349 to 0.0865349
Heightened Def Con from 0.0865349 to 0.0865349
Heightened Def Con from 0.0865349 to 0.0865349
Heightened Def Con from 0.0865349 to 0.0865349
Heightened Def Con from 0.0865349 to 0.0865349
Heightened Def Con from 0.0865349 to 0.0865349
Heightened Def Con from 0.0865349 to 0.0865349
Heightened Def Con from 0.0865349 to 0.0865349
Heightened Def Con from 0.0865349 to 0.0865349
Heightened Def Con from 0.0865349 to 0.0865349
Heightened Def Con from 0.0865349 to 0.0865349
Heightened Def Con from 0.0865349 to 0.0865349
Heightened Def Con from 0.0865349 to 0.0865349
Heightened Def Con from 0.0865349 to 0.0865349
Heightened Def Con from 0.0865349 to 0.0865349
Heightened Def Con from 0.0865349 to 0.0865349
Heightened Def Con from 0.0865349 to 0.0865349
Heightened Def Con from 0.0865349 to 0.0865349
Heightened Def Con from 0.0865349 to 0.0865349
Heightened Def Con from 0.0865349 to 0.0865349
Heightened Def Con from 0.0865349 to 0.0865349
Heightened Def Con from 0.0865349 to 0.0865349
Heightened Def Con from 0.0865349 to 0.0865349
Heightened Def Con from 0.0865349 to 0.0865349
Heightened Def Con from 0.0865349 to 0.0865349
Heightened Def Con from 0.0865349 to 0.0865349
Heightened Def Con from 0.0865349 to 0.0865349
Heightened Def Con from 0.0865349 to 0.0865349
Heightened Def Con from 0.0865349 to 0.0865349
Heightened Def Con from 0.0865349 to 0.0865349
Heightened Def Con from 0.0865349 to 0.0865349
Heightened Def Con from 0.0865349 to 0.0865349
Heightened Def Con from 0.0865349 to 0.0865349
Heightened Def Con from 0.0865349 to 0.0865349
Heightened Def Con from 0.0865349 to 0.0865349
Heightened Def Con from 0.0865349 to 0.0865349
Heightened Def Con from 0.0865349 to 0.0865349
Heightened Def Con from 0.0865349 to 0.0865349
Heightened Def Con from 0.0865349 to 0.0865349
Heightened Def Con from 0.0865349 to 0.0865349
Heightened Def Con from 0.0865349 to 0.0865349
Heightened Def Con from 0.0865349 to 0.0865349
Heightened Def Con from 0.0865349 to 0.0865349
Heightened Def Con from 0.0865349 to 0.0865349
Heightened Def Con from 0.0865349 to 0.0865349
Heightened Def Con from 0.0865349 to 0.0865349
Heightened Def Con from 0.0865349 to 0.0865349
Heightened Def Con from 0.0865349 to 0.0865349
Heightened Def Con from 0.0865349 to 0.0865349
Heightened Def Con from 0.0865349 to 0.0865349
Heightened Def Con from 0.0865349 to 0.0865349
Heightened Def Con from 0.0865349 to 0.0865349
Heightened Def Con from 0.0865349 to 0.0865349
Heightened Def Con from 0.0865349 to 0.0865349
Heightened Def Con from 0.0865349 to 0.0865349
Heightened Def Con from 0.0865349 to 0.0865349
Heightened Def Con from 0.0865349 to 0.0865349
Heightened Def Con from 0.0865349 to 0.0865349
Heightened Def Con from 0.0865349 to 0.0865349
Heightened Def Con from 0.0865349 to 0.0865349
Heightened Def Con from 0.0865349 to 0.0865349
Heightened Def Con from 0.0865349 to 0.0865349
Heightened Def Con from 0.0865349 to 0.0865349
Heightened Def Con from 0.0865349 to 0.0865349
Heightened Def Con from 0.0865349 to 0.0865349
Heightened Def Con from 0.0865349 to 0.0865349
Heightened Def Con from 0.0865349 to 0.0865349
Heightened Def Con from 0.0865349 to 0.0865349
Heightened Def Con from 0.0865349 to 0.0865349
Heightened Def Con from 0.0865349 to 0.0865349
Heightened Def Con from 0.0865349 to 0.0865349
Heightened Def Con from 0.0865349 to 0.0865349
Heightened Def Con from 0.0865349 to 0.0865349
Heightened Def Con from 0.0865349 to 0.0865349
Heightened Def Con from 0.0865349 to 0.0865349
Heightened Def Con from 0.0865349 to 0.0865349
Heightened Def Con from 0.0865349 to 0.0865349
Heightened Def Con from 0.0865349 to 0.086535
Heightened Def Con from 0.086535 to 0.086535
Heightened Def Con from 0.086535 to 0.086535
Heightened Def Con from 0.086535 to 0.086535
Heightened Def Con from 0.086535 to 0.086535
Heightened Def Con from 0.086535 to 0.086535
Heightened Def Con from 0.086535 to 0.086535
Heightened Def Con from 0.086535 to 0.086535
Heightened Def Con from 0.086535 to 0.086535
Heightened Def Con from 0.086535 to 0.086535
Heightened Def Con from 0.086535 to 0.086535
Heightened Def Con from 0.086535 to 0.086535
Heightened Def Con from 0.086535 to 0.086535
Heightened Def Con from 0.086535 to 0.086535
Heightened Def Con from 0.086535 to 0.086535
Heightened Def Con from 0.086535 to 0.086535
Heightened Def Con from 0.086535 to 0.086535
Heightened Def Con from 0.086535 to 0.086535
Heightened Def Con from 0.086535 to 0.086535
Heightened Def Con from 0.086535 to 0.086535
Heightened Def Con from 0.086535 to 0.086535
Heightened Def Con from 0.086535 to 0.086535
Heightened Def Con from 0.086535 to 0.086535
Heightened Def Con from 0.086535 to 0.086535
Heightened Def Con from 0.086535 to 0.086535
Heightened Def Con from 0.086535 to 0.086535
Heightened Def Con from 0.086535 to 0.086535
Heightened Def Con from 0.086535 to 0.086535
Heightened Def Con from 0.086535 to 0.086535
Heightened Def Con from 0.086535 to 0.086535
Heightened Def Con from 0.086535 to 0.086535
Heightened Def Con from 0.086535 to 0.086535
Heightened Def Con from 0.086535 to 0.086535
Heightened Def Con from 0.086535 to 0.086535
Heightened Def Con from 0.086535 to 0.086535
Heightened Def Con from 0.086535 to 0.086535
Heightened Def Con from 0.086535 to 0.086535
Heightened Def Con from 0.086535 to 0.086535
Heightened Def Con from 0.086535 to 0.086535
Heightened Def Con from 0.086535 to 0.086535
Heightened Def Con from 0.086535 to 0.086535
Heightened Def Con from 0.086535 to 0.086535
Heightened Def Con from 0.086535 to 0.086535
Heightened Def Con from 0.086535 to 0.086535
Heightened Def Con from 0.086535 to 0.086535
Heightened Def Con from 0.086535 to 0.086535
Heightened Def Con from 0.086535 to 0.086535
Heightened Def Con from 0.086535 to 0.086535
Heightened Def Con from 0.086535 to 0.086535
Heightened Def Con from 0.086535 to 0.086535
Heightened Def Con from 0.086535 to 0.086535
Heightened Def Con from 0.086535 to 0.086535
Heightened Def Con from 0.086535 to 0.086535
Heightened Def Con from 0.086535 to 0.086535
Heightened Def Con from 0.086535 to 0.086535
Heightened Def Con from 0.086535 to 0.086535
Heightened Def Con from 0.086535 to 0.086535
Heightened Def Con from 0.086535 to 0.086535
Heightened Def Con from 0.086535 to 0.086535
Heightened Def Con from 0.086535 to 0.086535
Heightened Def Con from 0.086535 to 0.086535
Heightened Def Con from 0.086535 to 0.086535
Heightened Def Con from 0.086535 to 0.086535
Heightened Def Con from 0.086535 to 0.086535
Heightened Def Con from 0.086535 to 0.086535
Heightened Def Con from 0.086535 to 0.086535
Heightened Def Con from 0.086535 to 0.086535
Heightened Def Con from 0.086535 to 0.086535
Heightened Def Con from 0.086535 to 0.086535
Heightened Def Con from 0.086535 to 0.086535
Heightened Def Con from 0.086535 to 0.086535
Heightened Def Con from 0.086535 to 0.086535
Heightened Def Con from 0.086535 to 0.086535
Heightened Def Con from 0.086535 to 0.086535
Heightened Def Con from 0.086535 to 0.086535
Heightened Def Con from 0.086535 to 0.086535
Heightened Def Con from 0.086535 to 0.086535
Heightened Def Con from 0.086535 to 0.086535
Heightened Def Con from 0.086535 to 0.086535
Heightened Def Con from 0.086535 to 0.086535
Heightened Def Con from 0.086535 to 0.086535
Heightened Def Con from 0.086535 to 0.086535
Heightened Def Con from 0.086535 to 0.086535
Heightened Def Con from 0.086535 to 0.086535
Heightened Def Con from 0.086535 to 0.086535
Heightened Def Con from 0.086535 to 0.086535
Heightened Def Con from 0.086535 to 0.086535
Heightened Def Con from 0.086535 to 0.086535
Heightened Def Con from 0.086535 to 0.086535
Heightened Def Con from 0.086535 to 0.086535
Heightened Def Con from 0.086535 to 0.086535
Heightened Def Con from 0.086535 to 0.086535
Heightened Def Con from 0.086535 to 0.086535
Heightened Def Con from 0.086535 to 0.086535
Heightened Def Con from 0.086535 to 0.086535
Heightened Def Con from 0.0865351 to 0.0865351
Heightened Def Con from 0.0865351 to 0.0865351
Heightened Def Con from 0.0865351 to 0.0865351
Heightened Def Con from 0.0865351 to 0.0865351
Heightened Def Con from 0.0865351 to 0.0865351
Heightened Def Con from 0.0865351 to 0.0865351
Heightened Def Con from 0.0865351 to 0.0865351
Heightened Def Con from 0.0865351 to 0.0865351
Heightened Def Con from 0.0865351 to 0.0865351
Heightened Def Con from 0.0865351 to 0.0865351
Heightened Def Con from 0.0865351 to 0.0865351
Heightened Def Con from 0.0865351 to 0.0865351
Heightened Def Con from 0.0865351 to 0.0865351
Heightened Def Con from 0.0865351 to 0.0865351
Heightened Def Con from 0.0865351 to 0.0865351
Heightened Def Con from 0.0865351 to 0.0865351
Heightened Def Con from 0.0865351 to 0.0865351
Heightened Def Con from 0.0865351 to 0.0865351
Heightened Def Con from 0.0865351 to 0.0865351
Heightened Def Con from 0.0865351 to 0.0865351
Heightened Def Con from 0.0865351 to 0.0865351
Heightened Def Con from 0.0865351 to 0.0865351
Heightened Def Con from 0.0865351 to 0.0865351
Heightened Def Con from 0.0865351 to 0.0865351
Heightened Def Con from 0.0865351 to 0.0865351
Heightened Def Con from 0.0865351 to 0.0865351
Heightened Def Con from 0.0865351 to 0.0865351
Heightened Def Con from 0.0865351 to 0.0865351
Heightened Def Con from 0.0865351 to 0.0865351
Heightened Def Con from 0.0865351 to 0.0865351
Heightened Def Con from 0.0865351 to 0.0865351
Heightened Def Con from 0.0865351 to 0.0865351
Heightened Def Con from 0.0865351 to 0.0865351
Heightened Def Con from 0.0865351 to 0.0865351
Heightened Def Con from 0.0865351 to 0.0865351
Heightened Def Con from 0.0865351 to 0.0865351
Heightened Def Con from 0.0865351 to 0.0865351
Heightened Def Con from 0.0865351 to 0.0865351
Heightened Def Con from 0.0865351 to 0.0865351
Heightened Def Con from 0.0865351 to 0.0865351
Heightened Def Con from 0.0865351 to 0.0865351
Heightened Def Con from 0.0865351 to 0.0865351
Heightened Def Con from 0.0865351 to 0.0865351
Heightened Def Con from 0.0865351 to 0.0865351
Heightened Def Con from 0.0865351 to 0.0865351
Heightened Def Con from 0.0865351 to 0.0865351
Heightened Def Con from 0.0865351 to 0.0865351
Heightened Def Con from 0.0865351 to 0.0865351
Heightened Def Con from 0.0865351 to 0.0865351
Heightened Def Con from 0.0865351 to 0.0865351
Heightened Def Con from 0.0865351 to 0.0865351
Heightened Def Con from 0.0865351 to 0.0865351
Heightened Def Con from 0.0865351 to 0.0865351
Heightened Def Con from 0.0865351 to 0.0865351
Heightened Def Con from 0.0865351 to 0.0865351
Heightened Def Con from 0.0865351 to 0.0865351
Heightened Def Con from 0.0865351 to 0.0865351
Heightened Def Con from 0.0865351 to 0.0865351
Heightened Def Con from 0.0865351 to 0.0865351
Heightened Def Con from 0.0865351 to 0.0865351
Heightened Def Con from 0.0865351 to 0.0865351
Heightened Def Con from 0.0865351 to 0.0865351
Heightened Def Con from 0.0865351 to 0.0865351
Heightened Def Con from 0.0865351 to 0.0865351
Heightened Def Con from 0.0865351 to 0.0865351
Heightened Def Con from 0.0865351 to 0.0865351
Heightened Def Con from 0.0865351 to 0.0865351
Heightened Def Con from 0.0865351 to 0.0865351
Heightened Def Con from 0.0865351 to 0.0865351
Heightened Def Con from 0.0865351 to 0.0865351
Heightened Def Con from 0.0865351 to 0.0865351
Heightened Def Con from 0.0865351 to 0.0865351
Heightened Def Con from 0.0865351 to 0.0865351
Heightened Def Con from 0.0865351 to 0.0865351
Heightened Def Con from 0.0865351 to 0.0865351
Heightened Def Con from 0.0865351 to 0.0865351
Heightened Def Con from 0.0865351 to 0.0865351
Heightened Def Con from 0.0865351 to 0.0865351
Heightened Def Con from 0.0865351 to 0.0865351
Heightened Def Con from 0.0865351 to 0.0865351
Heightened Def Con from 0.0865351 to 0.0865351
Heightened Def Con from 0.0865351 to 0.0865351
Heightened Def Con from 0.0865351 to 0.0865351
Heightened Def Con from 0.0865351 to 0.0865351
Heightened Def Con from 0.0865351 to 0.0865351
Heightened Def Con from 0.0865351 to 0.0865351
Heightened Def Con from 0.0865351 to 0.0865351
Heightened Def Con from 0.0865351 to 0.0865351
Heightened Def Con from 0.0865351 to 0.0865351
Heightened Def Con from 0.0865351 to 0.0865351
Heightened Def Con from 0.0865351 to 0.0865351
Heightened Def Con from 0.0865351 to 0.0865351
Heightened Def Con from 0.0865351 to 0.0865351
Heightened Def Con from 0.0865351 to 0.0865351
Heightened Def Con from 0.0865351 to 0.0865351
Heightened Def Con from 0.0865351 to 0.0865351
Heightened Def Con from 0.0865351 to 0.0865351
Heightened Def Con from 0.0865351 to 0.0865351
Heightened Def Con from 0.0865351 to 0.0865351
Heightened Def Con from 0.0865351 to 0.0865351
Heightened Def Con from 0.0865351 to 0.0865351
Heightened Def Con from 0.0865351 to 0.0865351
Heightened Def Con from 0.0865351 to 0.0865352
Heightened Def Con from 0.0865352 to 0.0865352
Heightened Def Con from 0.0865352 to 0.0865352
Heightened Def Con from 0.0865352 to 0.0865352
Heightened Def Con from 0.0865352 to 0.0865352
Heightened Def Con from 0.0865352 to 0.0865352
Heightened Def Con from 0.0865352 to 0.0865352
Heightened Def Con from 0.0865352 to 0.0865352
Heightened Def Con from 0.0865352 to 0.0865352
Heightened Def Con from 0.0865352 to 0.0865352
Heightened Def Con from 0.0865352 to 0.0865352
Heightened Def Con from 0.0865352 to 0.0865352
Heightened Def Con from 0.0865352 to 0.0865352
Heightened Def Con from 0.0865352 to 0.0865352
Heightened Def Con from 0.0865352 to 0.0865352
Heightened Def Con from 0.0865352 to 0.0865352
Heightened Def Con from 0.0865352 to 0.0865352
Heightened Def Con from 0.0865352 to 0.0865352
Heightened Def Con from 0.0865352 to 0.0865352
Heightened Def Con from 0.0865352 to 0.0865352
Heightened Def Con from 0.0865352 to 0.0865352
Heightened Def Con from 0.0865352 to 0.0865352
Heightened Def Con from 0.0865352 to 0.0865352
Heightened Def Con from 0.0865352 to 0.0865352
Heightened Def Con from 0.0865352 to 0.0865352
Heightened Def Con from 0.0865352 to 0.0865352
Heightened Def Con from 0.0865352 to 0.0865352
Heightened Def Con from 0.0865352 to 0.0865352
Heightened Def Con from 0.0865352 to 0.0865352
Heightened Def Con from 0.0865352 to 0.0865352
Heightened Def Con from 0.0865352 to 0.0865352
Heightened Def Con from 0.0865352 to 0.0865352
Heightened Def Con from 0.0865352 to 0.0865352
Heightened Def Con from 0.0865352 to 0.0865352
Heightened Def Con from 0.0865352 to 0.0865352
Heightened Def Con from 0.0865352 to 0.0865352
Heightened Def Con from 0.0865352 to 0.0865352
Heightened Def Con from 0.0865352 to 0.0865352
Heightened Def Con from 0.0865352 to 0.0865352
Heightened Def Con from 0.0865352 to 0.0865352
Heightened Def Con from 0.0865352 to 0.0865352
Heightened Def Con from 0.0865352 to 0.0865352
Heightened Def Con from 0.0865352 to 0.0865352
Heightened Def Con from 0.0865352 to 0.0865352
Heightened Def Con from 0.0865352 to 0.0865352
Heightened Def Con from 0.0865352 to 0.0865352
Heightened Def Con from 0.0865352 to 0.0865352
Heightened Def Con from 0.0865352 to 0.0865352
Heightened Def Con from 0.0865352 to 0.0865352
Heightened Def Con from 0.0865352 to 0.0865352
Heightened Def Con from 0.0865352 to 0.0865352
Heightened Def Con from 0.0865352 to 0.0865352
Heightened Def Con from 0.0865352 to 0.0865352
Heightened Def Con from 0.0865352 to 0.0865352
Heightened Def Con from 0.0865352 to 0.0865352
Heightened Def Con from 0.0865352 to 0.0865352
Heightened Def Con from 0.0865352 to 0.0865352
Heightened Def Con from 0.0865352 to 0.0865352
Heightened Def Con from 0.0865352 to 0.0865352
Heightened Def Con from 0.0865352 to 0.0865352
Heightened Def Con from 0.0865352 to 0.0865352
Heightened Def Con from 0.0865352 to 0.0865352
Heightened Def Con from 0.0865352 to 0.0865352
Heightened Def Con from 0.0865352 to 0.0865352
Heightened Def Con from 0.0865352 to 0.0865352
Heightened Def Con from 0.0865352 to 0.0865352
Heightened Def Con from 0.0865352 to 0.0865352
Heightened Def Con from 0.0865352 to 0.0865352
Heightened Def Con from 0.0865352 to 0.0865352
Heightened Def Con from 0.0865352 to 0.0865352
Heightened Def Con from 0.0865352 to 0.0865352
Heightened Def Con from 0.0865352 to 0.0865352
Heightened Def Con from 0.0865352 to 0.0865352
Heightened Def Con from 0.0865352 to 0.0865352
Heightened Def Con from 0.0865352 to 0.0865352
Heightened Def Con from 0.0865352 to 0.0865352
Heightened Def Con from 0.0865352 to 0.0865352
Heightened Def Con from 0.0865352 to 0.0865352
Heightened Def Con from 0.0865352 to 0.0865352
Heightened Def Con from 0.0865352 to 0.0865352
Heightened Def Con from 0.0865352 to 0.0865352
Heightened Def Con from 0.0865352 to 0.0865352
Heightened Def Con from 0.0865352 to 0.0865352
Heightened Def Con from 0.0865352 to 0.0865352
Heightened Def Con from 0.0865352 to 0.0865352
Heightened Def Con from 0.0865352 to 0.0865352
Heightened Def Con from 0.0865352 to 0.0865352
Heightened Def Con from 0.0865352 to 0.0865352
Heightened Def Con from 0.0865352 to 0.0865352
Heightened Def Con from 0.0865352 to 0.0865352
Heightened Def Con from 0.0865352 to 0.0865352
Heightened Def Con from 0.0865352 to 0.0865352
Heightened Def Con from 0.0865352 to 0.0865352
Heightened Def Con from 0.0865352 to 0.0865352
Heightened Def Con from 0.0865352 to 0.0865352
Heightened Def Con from 0.0865352 to 0.0865352
Heightened Def Con from 0.0865352 to 0.0865352
Heightened Def Con from 0.0865352 to 0.0865352
Heightened Def Con from 0.0865352 to 0.0865352
Heightened Def Con from 0.0865352 to 0.0865352
Heightened Def Con from 0.0865352 to 0.0865352
Heightened Def Con from 0.0865352 to 0.0865352
Heightened Def Con from 0.0865352 to 0.0865352
Heightened Def Con from 0.0865352 to 0.0865352
Heightened Def Con from 0.0865352 to 0.0865352
Heightened Def Con from 0.0865352 to 0.0865352
Heightened Def Con from 0.0865352 to 0.0865352
Heightened Def Con from 0.0865352 to 0.0865352
Heightened Def Con from 0.0865352 to 0.0865352
Heightened Def Con from 0.0865352 to 0.0865352
Heightened Def Con from 0.0865352 to 0.0865352
Heightened Def Con from 0.0865352 to 0.0865352
Heightened Def Con from 0.0865352 to 0.0865352
Heightened Def Con from 0.0865352 to 0.0865352
Heightened Def Con from 0.0865352 to 0.0865352
Heightened Def Con from 0.0865352 to 0.0865352
Heightened Def Con from 0.0865352 to 0.0865352
Heightened Def Con from 0.0865352 to 0.0865352
Heightened Def Con from 0.0865352 to 0.0865352
Heightened Def Con from 0.0865352 to 0.0865352
Heightened Def Con from 0.0865352 to 0.0865352
Heightened Def Con from 0.0865352 to 0.0865352
Heightened Def Con from 0.0865352 to 0.0865352
Heightened Def Con from 0.0865352 to 0.0865352
Heightened Def Con from 0.0865352 to 0.0865352
Heightened Def Con from 0.0865352 to 0.0865352
Heightened Def Con from 0.0865352 to 0.0865352
Heightened Def Con from 0.0865352 to 0.0865352
Heightened Def Con from 0.0865352 to 0.0865352
Heightened Def Con from 0.0865352 to 0.0865352
Heightened Def Con from 0.0865352 to 0.0865352
Heightened Def Con from 0.0865352 to 0.0865352
Heightened Def Con from 0.0865352 to 0.0865352
Heightened Def Con from 0.0865352 to 0.0865352
Heightened Def Con from 0.0865352 to 0.0865353
Heightened Def Con from 0.0865353 to 0.0865353
Heightened Def Con from 0.0865353 to 0.0865353
Heightened Def Con from 0.0865353 to 0.0865353
Heightened Def Con from 0.0865353 to 0.0865353
Heightened Def Con from 0.0865353 to 0.0865353
Heightened Def Con from 0.0865353 to 0.0865353
Heightened Def Con from 0.0865353 to 0.0865353
Heightened Def Con from 0.0865353 to 0.0865353
Heightened Def Con from 0.0865353 to 0.0865353
Heightened Def Con from 0.0865353 to 0.0865353
Heightened Def Con from 0.0865353 to 0.0865353
Heightened Def Con from 0.0865353 to 0.0865353
Heightened Def Con from 0.0865353 to 0.0865353
Heightened Def Con from 0.0865353 to 0.0865353
Heightened Def Con from 0.0865353 to 0.0865353
Heightened Def Con from 0.0865353 to 0.0865353
Heightened Def Con from 0.0865353 to 0.0865353
Heightened Def Con from 0.0865353 to 0.0865353
Heightened Def Con from 0.0865353 to 0.0865353
Heightened Def Con from 0.0865353 to 0.0865353
Heightened Def Con from 0.0865353 to 0.0865353
Heightened Def Con from 0.0865353 to 0.0865353
Heightened Def Con from 0.0865353 to 0.0865353
Heightened Def Con from 0.0865353 to 0.0865353
Heightened Def Con from 0.0865353 to 0.0865353
Heightened Def Con from 0.0865353 to 0.0865353
Heightened Def Con from 0.0865353 to 0.0865353
Heightened Def Con from 0.0865353 to 0.0865353
Heightened Def Con from 0.0865353 to 0.0865353
Heightened Def Con from 0.0865353 to 0.0865353
Heightened Def Con from 0.0865353 to 0.0865353
Heightened Def Con from 0.0865353 to 0.0865353
Heightened Def Con from 0.0865353 to 0.0865353
Heightened Def Con from 0.0865353 to 0.0865353
Heightened Def Con from 0.0865353 to 0.0865353
Heightened Def Con from 0.0865353 to 0.0865353
Heightened Def Con from 0.0865353 to 0.0865353
Heightened Def Con from 0.0865353 to 0.0865353
Heightened Def Con from 0.0865353 to 0.0865353
Heightened Def Con from 0.0865353 to 0.0865353
Heightened Def Con from 0.0865353 to 0.0865353
Heightened Def Con from 0.0865353 to 0.0865353
Heightened Def Con from 0.0865353 to 0.0865353
Heightened Def Con from 0.0865353 to 0.0865353
Heightened Def Con from 0.0865353 to 0.0865353
Heightened Def Con from 0.0865353 to 0.0865353
Heightened Def Con from 0.0865353 to 0.0865353
Heightened Def Con from 0.0865353 to 0.0865353
Heightened Def Con from 0.0865353 to 0.0865353
Heightened Def Con from 0.0865353 to 0.0865353
Heightened Def Con from 0.0865353 to 0.0865353
Heightened Def Con from 0.0865353 to 0.0865353
Heightened Def Con from 0.0865353 to 0.0865353
Heightened Def Con from 0.0865353 to 0.0865353
Heightened Def Con from 0.0865353 to 0.0865353
Heightened Def Con from 0.0865353 to 0.0865353
Heightened Def Con from 0.0865353 to 0.0865353
Heightened Def Con from 0.0865353 to 0.0865353
Heightened Def Con from 0.0865353 to 0.0865353
Heightened Def Con from 0.0865353 to 0.0865353
Heightened Def Con from 0.0865353 to 0.0865353
Heightened Def Con from 0.0865353 to 0.0865353
Heightened Def Con from 0.0865353 to 0.0865353
Heightened Def Con from 0.0865353 to 0.0865353
Heightened Def Con from 0.0865353 to 0.0865353
Heightened Def Con from 0.0865353 to 0.0865353
Heightened Def Con from 0.0865353 to 0.0865353
Heightened Def Con from 0.0865353 to 0.0865353
Heightened Def Con from 0.0865353 to 0.0865353
Heightened Def Con from 0.0865353 to 0.0865353
Heightened Def Con from 0.0865353 to 0.0865353
Heightened Def Con from 0.0865353 to 0.0865353
Heightened Def Con from 0.0865353 to 0.0865353
Heightened Def Con from 0.0865353 to 0.0865353
Heightened Def Con from 0.0865353 to 0.0865353
Heightened Def Con from 0.0865353 to 0.0865353
Heightened Def Con from 0.0865353 to 0.0865353
Heightened Def Con from 0.0865353 to 0.0865353
Heightened Def Con from 0.0865353 to 0.0865353
Heightened Def Con from 0.0865353 to 0.0865353
Heightened Def Con from 0.0865353 to 0.0865353
Heightened Def Con from 0.0865353 to 0.0865353
Heightened Def Con from 0.0865353 to 0.0865353
Heightened Def Con from 0.0865353 to 0.0865353
Heightened Def Con from 0.0865353 to 0.0865353
Heightened Def Con from 0.0865353 to 0.0865353
Heightened Def Con from 0.0865353 to 0.0865353
Heightened Def Con from 0.0865353 to 0.0865353
Heightened Def Con from 0.0865353 to 0.0865353
Heightened Def Con from 0.0865353 to 0.0865353
Heightened Def Con from 0.0865353 to 0.0865353
Heightened Def Con from 0.0865353 to 0.0865353
Heightened Def Con from 0.0865353 to 0.0865353
Heightened Def Con from 0.0865353 to 0.0865353
Heightened Def Con from 0.0865353 to 0.0865353
Heightened Def Con from 0.0865353 to 0.0865353
Heightened Def Con from 0.0865353 to 0.0865353
Heightened Def Con from 0.0865353 to 0.0865353
Heightened Def Con from 0.0865353 to 0.0865353
Heightened Def Con from 0.0865353 to 0.0865353
Heightened Def Con from 0.0865353 to 0.0865353
Heightened Def Con from 0.0865353 to 0.0865353
Heightened Def Con from 0.0865353 to 0.0865353
Heightened Def Con from 0.0865353 to 0.0865353
Heightened Def Con from 0.0865353 to 0.0865353
Heightened Def Con from 0.0865353 to 0.0865353
Heightened Def Con from 0.0865353 to 0.0865353
Heightened Def Con from 0.0865353 to 0.0865353
Heightened Def Con from 0.0865353 to 0.0865353
Heightened Def Con from 0.0865353 to 0.0865353
Heightened Def Con from 0.0865353 to 0.0865353
Heightened Def Con from 0.0865353 to 0.0865353
Heightened Def Con from 0.0865353 to 0.0865353
Heightened Def Con from 0.0865353 to 0.0865353
Heightened Def Con from 0.0865353 to 0.0865353
Heightened Def Con from 0.0865353 to 0.0865353
Heightened Def Con from 0.0865353 to 0.0865353
Heightened Def Con from 0.0865353 to 0.0865353
Heightened Def Con from 0.0865353 to 0.0865354
Heightened Def Con from 0.0865354 to 0.0865354
Heightened Def Con from 0.0865354 to 0.0865354
Heightened Def Con from 0.0865354 to 0.0865354
Heightened Def Con from 0.0865354 to 0.0865354
Heightened Def Con from 0.0865354 to 0.0865354
Heightened Def Con from 0.0865354 to 0.0865354
Heightened Def Con from 0.0865354 to 0.0865354
Heightened Def Con from 0.0865354 to 0.0865354
Heightened Def Con from 0.0865354 to 0.0865354
Heightened Def Con from 0.0865354 to 0.0865354
Heightened Def Con from 0.0865354 to 0.0865354
Heightened Def Con from 0.0865354 to 0.0865354
Heightened Def Con from 0.0865354 to 0.0865354
Heightened Def Con from 0.0865354 to 0.0865354
Heightened Def Con from 0.0865354 to 0.0865354
Heightened Def Con from 0.0865354 to 0.0865354
Heightened Def Con from 0.0865354 to 0.0865354
Heightened Def Con from 0.0865354 to 0.0865354
Heightened Def Con from 0.0865354 to 0.0865354
Heightened Def Con from 0.0865354 to 0.0865354
Heightened Def Con from 0.0865354 to 0.0865354
Heightened Def Con from 0.0865354 to 0.0865354
Heightened Def Con from 0.0865354 to 0.0865354
Heightened Def Con from 0.0865354 to 0.0865354
Heightened Def Con from 0.0865354 to 0.0865354
Heightened Def Con from 0.0865354 to 0.0865354
Heightened Def Con from 0.0865354 to 0.0865354
Heightened Def Con from 0.0865354 to 0.0865354
Heightened Def Con from 0.0865354 to 0.0865354
Heightened Def Con from 0.0865354 to 0.0865354
Heightened Def Con from 0.0865354 to 0.0865354
Heightened Def Con from 0.0865354 to 0.0865354
Heightened Def Con from 0.0865354 to 0.0865354
Heightened Def Con from 0.0865354 to 0.0865354
Heightened Def Con from 0.0865354 to 0.0865354
Heightened Def Con from 0.0865354 to 0.0865354
Heightened Def Con from 0.0865354 to 0.0865354
Heightened Def Con from 0.0865354 to 0.0865354
Heightened Def Con from 0.0865354 to 0.0865354
Heightened Def Con from 0.0865354 to 0.0865354
Heightened Def Con from 0.0865354 to 0.0865354
Heightened Def Con from 0.0865354 to 0.0865354
Heightened Def Con from 0.0865354 to 0.0865354
Heightened Def Con from 0.0865354 to 0.0865354
Heightened Def Con from 0.0865354 to 0.0865354
Heightened Def Con from 0.0865354 to 0.0865354
Heightened Def Con from 0.0865354 to 0.0865354
Heightened Def Con from 0.0865354 to 0.0865354
Heightened Def Con from 0.0865354 to 0.0865354
Heightened Def Con from 0.0865354 to 0.0865354
Heightened Def Con from 0.0865354 to 0.0865354
Heightened Def Con from 0.0865354 to 0.0865354
Heightened Def Con from 0.0865354 to 0.0865354
Heightened Def Con from 0.0865354 to 0.0865354
Heightened Def Con from 0.0865354 to 0.0865354
Heightened Def Con from 0.0865354 to 0.0865354
Heightened Def Con from 0.0865354 to 0.0865354
Heightened Def Con from 0.0865354 to 0.0865354
Heightened Def Con from 0.0865354 to 0.0865354
Heightened Def Con from 0.0865354 to 0.0865354
Heightened Def Con from 0.0865354 to 0.0865354
Heightened Def Con from 0.0865354 to 0.0865354
Heightened Def Con from 0.0865354 to 0.0865354
Heightened Def Con from 0.0865354 to 0.0865354
Heightened Def Con from 0.0865354 to 0.0865354
Heightened Def Con from 0.0865354 to 0.0865354
Heightened Def Con from 0.0865354 to 0.0865354
Heightened Def Con from 0.0865354 to 0.0865354
Heightened Def Con from 0.0865354 to 0.0865354
Heightened Def Con from 0.0865354 to 0.0865354
Heightened Def Con from 0.0865354 to 0.0865354
Heightened Def Con from 0.0865354 to 0.0865354
Heightened Def Con from 0.0865354 to 0.0865354
Heightened Def Con from 0.0865354 to 0.0865354
Heightened Def Con from 0.0865354 to 0.0865354
Heightened Def Con from 0.0865354 to 0.0865354
Heightened Def Con from 0.0865354 to 0.0865354
Heightened Def Con from 0.0865354 to 0.0865354
Heightened Def Con from 0.0865354 to 0.0865354
Heightened Def Con from 0.0865354 to 0.0865354
Heightened Def Con from 0.0865354 to 0.0865354
Heightened Def Con from 0.0865354 to 0.0865354
Heightened Def Con from 0.0865354 to 0.0865354
Heightened Def Con from 0.0865354 to 0.0865354
Heightened Def Con from 0.0865354 to 0.0865354
Heightened Def Con from 0.0865354 to 0.0865354
Heightened Def Con from 0.0865354 to 0.0865354
Heightened Def Con from 0.0865354 to 0.0865354
Heightened Def Con from 0.0865354 to 0.0865354
Heightened Def Con from 0.0865354 to 0.0865354
Heightened Def Con from 0.0865354 to 0.0865354
Heightened Def Con from 0.0865354 to 0.0865354
Heightened Def Con from 0.0865354 to 0.0865354
Heightened Def Con from 0.0865354 to 0.0865354
Heightened Def Con from 0.0865354 to 0.0865354
Heightened Def Con from 0.0865354 to 0.0865354
Heightened Def Con from 0.0865354 to 0.0865354
Heightened Def Con from 0.0865354 to 0.0865354
Heightened Def Con from 0.0865354 to 0.0865354
Heightened Def Con from 0.0865354 to 0.0865354
Heightened Def Con from 0.0865354 to 0.0865354
Heightened Def Con from 0.0865354 to 0.0865354
Heightened Def Con from 0.0865354 to 0.0865354
Heightened Def Con from 0.0865354 to 0.0865354
Heightened Def Con from 0.0865354 to 0.0865354
Heightened Def Con from 0.0865354 to 0.0865354
Heightened Def Con from 0.0865354 to 0.0865354
Heightened Def Con from 0.0865354 to 0.0865354
Heightened Def Con from 0.0865354 to 0.0865354
Heightened Def Con from 0.0865354 to 0.0865354
Heightened Def Con from 0.0865354 to 0.0865354
Heightened Def Con from 0.0865354 to 0.0865354
Heightened Def Con from 0.0865354 to 0.0865354
Heightened Def Con from 0.0865354 to 0.0865354
Heightened Def Con from 0.0865354 to 0.0865354
Heightened Def Con from 0.0865354 to 0.0865354
Heightened Def Con from 0.0865354 to 0.0865354
Heightened Def Con from 0.0865354 to 0.0865354
Heightened Def Con from 0.0865354 to 0.0865354
Heightened Def Con from 0.0865354 to 0.0865354
Heightened Def Con from 0.0865354 to 0.0865354
Heightened Def Con from 0.0865354 to 0.0865354
Heightened Def Con from 0.0865354 to 0.0865354
Heightened Def Con from 0.0865354 to 0.0865354
Heightened Def Con from 0.0865354 to 0.0865354
Heightened Def Con from 0.0865354 to 0.0865354
Heightened Def Con from 0.0865354 to 0.0865354
Heightened Def Con from 0.0865354 to 0.0865354
Heightened Def Con from 0.0865354 to 0.0865354
Heightened Def Con from 0.0865354 to 0.0865354
Heightened Def Con from 0.0865354 to 0.0865354
Heightened Def Con from 0.0865354 to 0.0865354
Heightened Def Con from 0.0865354 to 0.0865354
Heightened Def Con from 0.0865354 to 0.0865354
Heightened Def Con from 0.0865354 to 0.0865355
Heightened Def Con from 0.0865355 to 0.0865355
Heightened Def Con from 0.0865355 to 0.0865355
Heightened Def Con from 0.0865355 to 0.0865355
Heightened Def Con from 0.0865355 to 0.0865355
Heightened Def Con from 0.0865355 to 0.0865355
Heightened Def Con from 0.0865355 to 0.0865355
Heightened Def Con from 0.0865355 to 0.0865355
Heightened Def Con from 0.0865355 to 0.0865355
Heightened Def Con from 0.0865355 to 0.0865355
Heightened Def Con from 0.0865355 to 0.0865355
Heightened Def Con from 0.0865355 to 0.0865355
Heightened Def Con from 0.0865355 to 0.0865355
Heightened Def Con from 0.0865355 to 0.0865355
Heightened Def Con from 0.0865355 to 0.0865355
Heightened Def Con from 0.0865355 to 0.0865355
Heightened Def Con from 0.0865355 to 0.0865355
Heightened Def Con from 0.0865355 to 0.0865355
Heightened Def Con from 0.0865355 to 0.0865355
Heightened Def Con from 0.0865355 to 0.0865355
Heightened Def Con from 0.0865355 to 0.0865355
Heightened Def Con from 0.0865355 to 0.0865355
Heightened Def Con from 0.0865355 to 0.0865355
Heightened Def Con from 0.0865355 to 0.0865355
Heightened Def Con from 0.0865355 to 0.0865355
Heightened Def Con from 0.0865355 to 0.0865355
Heightened Def Con from 0.0865355 to 0.0865355
Heightened Def Con from 0.0865355 to 0.0865355
Heightened Def Con from 0.0865355 to 0.0865355
Heightened Def Con from 0.0865355 to 0.0865355
Heightened Def Con from 0.0865355 to 0.0865355
Heightened Def Con from 0.0865355 to 0.0865355
Heightened Def Con from 0.0865355 to 0.0865355
Heightened Def Con from 0.0865355 to 0.0865355
Heightened Def Con from 0.0865355 to 0.0865355
Heightened Def Con from 0.0865355 to 0.0865355
Heightened Def Con from 0.0865355 to 0.0865355
Heightened Def Con from 0.0865355 to 0.0865355
Heightened Def Con from 0.0865355 to 0.0865355
Heightened Def Con from 0.0865355 to 0.0865355
Heightened Def Con from 0.0865355 to 0.0865355
Heightened Def Con from 0.0865355 to 0.0865355
Heightened Def Con from 0.0865355 to 0.0865355
Heightened Def Con from 0.0865355 to 0.0865355
Heightened Def Con from 0.0865355 to 0.0865355
Heightened Def Con from 0.0865355 to 0.0865355
Heightened Def Con from 0.0865355 to 0.0865355
Heightened Def Con from 0.0865355 to 0.0865355
Heightened Def Con from 0.0865355 to 0.0865355
Heightened Def Con from 0.0865355 to 0.0865355
Heightened Def Con from 0.0865355 to 0.0865355
Heightened Def Con from 0.0865355 to 0.0865355
Heightened Def Con from 0.0865355 to 0.0865355
Heightened Def Con from 0.0865355 to 0.0865355
Heightened Def Con from 0.0865355 to 0.0865355
Heightened Def Con from 0.0865355 to 0.0865355
Heightened Def Con from 0.0865355 to 0.0865355
Heightened Def Con from 0.0865355 to 0.0865355
Heightened Def Con from 0.0865355 to 0.0865355
Heightened Def Con from 0.0865355 to 0.0865355
Heightened Def Con from 0.0865355 to 0.0865355
Heightened Def Con from 0.0865355 to 0.0865355
Heightened Def Con from 0.0865355 to 0.0865355
Heightened Def Con from 0.0865355 to 0.0865355
Heightened Def Con from 0.0865355 to 0.0865355
Heightened Def Con from 0.0865355 to 0.0865355
Heightened Def Con from 0.0865355 to 0.0865355
Heightened Def Con from 0.0865355 to 0.0865355
Heightened Def Con from 0.0865355 to 0.0865355
Heightened Def Con from 0.0865355 to 0.0865355
Heightened Def Con from 0.0865355 to 0.0865355
Heightened Def Con from 0.0865355 to 0.0865355
Heightened Def Con from 0.0865355 to 0.0865355
Heightened Def Con from 0.0865355 to 0.0865355
Heightened Def Con from 0.0865355 to 0.0865355
Heightened Def Con from 0.0865355 to 0.0865355
Heightened Def Con from 0.0865355 to 0.0865355
Heightened Def Con from 0.0865355 to 0.0865355
Heightened Def Con from 0.0865355 to 0.0865355
Heightened Def Con from 0.0865355 to 0.0865355
Heightened Def Con from 0.0865355 to 0.0865355
Heightened Def Con from 0.0865355 to 0.0865355
Heightened Def Con from 0.0865355 to 0.0865355
Heightened Def Con from 0.0865355 to 0.0865355
Heightened Def Con from 0.0865355 to 0.0865355
Heightened Def Con from 0.0865355 to 0.0865355
Heightened Def Con from 0.0865355 to 0.0865355
Heightened Def Con from 0.0865355 to 0.0865355
Heightened Def Con from 0.0865355 to 0.0865355
Heightened Def Con from 0.0865355 to 0.0865355
Heightened Def Con from 0.0865355 to 0.0865355
Heightened Def Con from 0.0865355 to 0.0865355
Heightened Def Con from 0.0865355 to 0.0865355
Heightened Def Con from 0.0865355 to 0.0865355
Heightened Def Con from 0.0865355 to 0.0865355
Heightened Def Con from 0.0865355 to 0.0865355
Heightened Def Con from 0.0865355 to 0.0865355
Heightened Def Con from 0.0865355 to 0.0865355
Heightened Def Con from 0.0865355 to 0.0865355
Heightened Def Con from 0.0865355 to 0.0865355
Heightened Def Con from 0.0865355 to 0.0865355
Heightened Def Con from 0.0865355 to 0.0865355
Heightened Def Con from 0.0865355 to 0.0865355
Heightened Def Con from 0.0865355 to 0.0865355
Heightened Def Con from 0.0865355 to 0.0865355
Heightened Def Con from 0.0865355 to 0.0865355
Heightened Def Con from 0.0865355 to 0.0865355
Heightened Def Con from 0.0865355 to 0.0865355
Heightened Def Con from 0.0865355 to 0.0865355
Heightened Def Con from 0.0865355 to 0.0865355
Heightened Def Con from 0.0865355 to 0.0865355
Heightened Def Con from 0.0865355 to 0.0865355
Heightened Def Con from 0.0865355 to 0.0865355
Heightened Def Con from 0.0865355 to 0.0865355
Heightened Def Con from 0.0865355 to 0.0865355
Heightened Def Con from 0.0865355 to 0.0865355
Heightened Def Con from 0.0865355 to 0.0865355
Heightened Def Con from 0.0865355 to 0.0865355
Heightened Def Con from 0.0865355 to 0.0865355
Heightened Def Con from 0.0865355 to 0.0865355
Heightened Def Con from 0.0865355 to 0.0865355
Heightened Def Con from 0.0865355 to 0.0865355
Heightened Def Con from 0.0865355 to 0.0865355
Heightened Def Con from 0.0865355 to 0.0865355
Heightened Def Con from 0.0865355 to 0.0865355
Heightened Def Con from 0.0865355 to 0.0865355
Heightened Def Con from 0.0865355 to 0.0865355
Heightened Def Con from 0.0865355 to 0.0865355
Heightened Def Con from 0.0865355 to 0.0865355
Heightened Def Con from 0.0865355 to 0.0865355
Heightened Def Con from 0.0865355 to 0.0865355
Heightened Def Con from 0.0865355 to 0.0865355
Heightened Def Con from 0.0865355 to 0.0865356
Heightened Def Con from 0.0865356 to 0.0865356
Heightened Def Con from 0.0865356 to 0.0865356
Heightened Def Con from 0.0865356 to 0.0865356
Heightened Def Con from 0.0865356 to 0.0865356
Heightened Def Con from 0.0865356 to 0.0865356
Heightened Def Con from 0.0865356 to 0.0865356
Heightened Def Con from 0.0865356 to 0.0865356
Heightened Def Con from 0.0865356 to 0.0865356
Heightened Def Con from 0.0865356 to 0.0865356
Heightened Def Con from 0.0865356 to 0.0865356
Heightened Def Con from 0.0865356 to 0.0865356
Heightened Def Con from 0.0865356 to 0.0865356
Heightened Def Con from 0.0865356 to 0.0865356
Heightened Def Con from 0.0865356 to 0.0865356
Heightened Def Con from 0.0865356 to 0.0865356
Heightened Def Con from 0.0865356 to 0.0865356
Heightened Def Con from 0.0865356 to 0.0865356
Heightened Def Con from 0.0865356 to 0.0865356
Heightened Def Con from 0.0865356 to 0.0865356
Heightened Def Con from 0.0865356 to 0.0865356
Heightened Def Con from 0.0865356 to 0.0865356
Heightened Def Con from 0.0865356 to 0.0865356
Heightened Def Con from 0.0865356 to 0.0865356
Heightened Def Con from 0.0865356 to 0.0865356
Heightened Def Con from 0.0865356 to 0.0865356
Heightened Def Con from 0.0865356 to 0.0865356
Heightened Def Con from 0.0865356 to 0.0865356
Heightened Def Con from 0.0865356 to 0.0865356
Heightened Def Con from 0.0865356 to 0.0865356
Heightened Def Con from 0.0865356 to 0.0865356
Heightened Def Con from 0.0865356 to 0.0865356
Heightened Def Con from 0.0865356 to 0.0865356
Heightened Def Con from 0.0865356 to 0.0865356
Heightened Def Con from 0.0865356 to 0.0865356
Heightened Def Con from 0.0865356 to 0.0865356
Heightened Def Con from 0.0865356 to 0.0865356
Heightened Def Con from 0.0865356 to 0.0865356
Heightened Def Con from 0.0865356 to 0.0865356
Heightened Def Con from 0.0865356 to 0.0865356
Heightened Def Con from 0.0865356 to 0.0865356
Heightened Def Con from 0.0865356 to 0.0865356
Heightened Def Con from 0.0865356 to 0.0865356
Heightened Def Con from 0.0865356 to 0.0865356
Heightened Def Con from 0.0865356 to 0.0865356
Heightened Def Con from 0.0865356 to 0.0865356
Heightened Def Con from 0.0865356 to 0.0865356
Heightened Def Con from 0.0865356 to 0.0865356
Heightened Def Con from 0.0865356 to 0.0865356
Heightened Def Con from 0.0865356 to 0.0865356
Heightened Def Con from 0.0865356 to 0.0865356
Heightened Def Con from 0.0865356 to 0.0865356
Heightened Def Con from 0.0865356 to 0.0865356
Heightened Def Con from 0.0865356 to 0.0865356
Heightened Def Con from 0.0865356 to 0.0865356
Heightened Def Con from 0.0865356 to 0.0865356
Heightened Def Con from 0.0865356 to 0.0865356
Heightened Def Con from 0.0865356 to 0.0865356
Heightened Def Con from 0.0865356 to 0.0865356
Heightened Def Con from 0.0865356 to 0.0865356
Heightened Def Con from 0.0865356 to 0.0865356
Heightened Def Con from 0.0865356 to 0.0865356
Heightened Def Con from 0.0865356 to 0.0865356
Heightened Def Con from 0.0865356 to 0.0865356
Heightened Def Con from 0.0865356 to 0.0865356
Heightened Def Con from 0.0865356 to 0.0865356
Heightened Def Con from 0.0865356 to 0.0865356
Heightened Def Con from 0.0865356 to 0.0865356
Heightened Def Con from 0.0865356 to 0.0865356
Heightened Def Con from 0.0865356 to 0.0865356
Heightened Def Con from 0.0865356 to 0.0865356
Heightened Def Con from 0.0865356 to 0.0865356
Heightened Def Con from 0.0865356 to 0.0865356
Heightened Def Con from 0.0865356 to 0.0865356
Heightened Def Con from 0.0865356 to 0.0865356
Heightened Def Con from 0.0865356 to 0.0865356
Heightened Def Con from 0.0865356 to 0.0865356
Heightened Def Con from 0.0865356 to 0.0865356
Heightened Def Con from 0.0865356 to 0.0865356
Heightened Def Con from 0.0865356 to 0.0865356
Heightened Def Con from 0.0865356 to 0.0865356
Heightened Def Con from 0.0865356 to 0.0865356
Heightened Def Con from 0.0865356 to 0.0865356
Heightened Def Con from 0.0865356 to 0.0865356
Heightened Def Con from 0.0865356 to 0.0865356
Heightened Def Con from 0.0865356 to 0.0865356
Heightened Def Con from 0.0865356 to 0.0865356
Heightened Def Con from 0.0865356 to 0.0865356
Heightened Def Con from 0.0865356 to 0.0865356
Heightened Def Con from 0.0865356 to 0.0865356
Heightened Def Con from 0.0865356 to 0.0865356
Heightened Def Con from 0.0865356 to 0.0865356
Heightened Def Con from 0.0865356 to 0.0865356
Heightened Def Con from 0.0865356 to 0.0865356
Heightened Def Con from 0.0865356 to 0.0865356
Heightened Def Con from 0.0865356 to 0.0865356
Heightened Def Con from 0.0865356 to 0.0865356
Heightened Def Con from 0.0865356 to 0.0865356
Heightened Def Con from 0.0865356 to 0.0865356
Heightened Def Con from 0.0865356 to 0.0865356
Heightened Def Con from 0.0865356 to 0.0865356
Heightened Def Con from 0.0865356 to 0.0865356
Heightened Def Con from 0.0865356 to 0.0865356
Heightened Def Con from 0.0865356 to 0.0865356
Heightened Def Con from 0.0865356 to 0.0865356
Heightened Def Con from 0.0865356 to 0.0865357
Heightened Def Con from 0.0865357 to 0.0865357
Heightened Def Con from 0.0865357 to 0.0865357
Heightened Def Con from 0.0865357 to 0.0865357
Heightened Def Con from 0.0865357 to 0.0865357
Heightened Def Con from 0.0865357 to 0.0865357
Heightened Def Con from 0.0865357 to 0.0865357
Heightened Def Con from 0.0865357 to 0.0865357
Heightened Def Con from 0.0865357 to 0.0865357
Heightened Def Con from 0.0865357 to 0.0865357
Heightened Def Con from 0.0865357 to 0.0865357
Heightened Def Con from 0.0865357 to 0.0865357
Heightened Def Con from 0.0865357 to 0.0865357
Heightened Def Con from 0.0865357 to 0.0865357
Heightened Def Con from 0.0865357 to 0.0865357
Heightened Def Con from 0.0865357 to 0.0865357
Heightened Def Con from 0.0865357 to 0.0865357
Heightened Def Con from 0.0865357 to 0.0865357
Heightened Def Con from 0.0865357 to 0.0865357
Heightened Def Con from 0.0865357 to 0.0865357
Heightened Def Con from 0.0865357 to 0.0865357
Heightened Def Con from 0.0865357 to 0.0865357
Heightened Def Con from 0.0865357 to 0.0865357
Heightened Def Con from 0.0865357 to 0.0865357
Heightened Def Con from 0.0865357 to 0.0865357
Heightened Def Con from 0.0865357 to 0.0865357
Heightened Def Con from 0.0865357 to 0.0865357
Heightened Def Con from 0.0865357 to 0.0865357
Heightened Def Con from 0.0865357 to 0.0865357
Heightened Def Con from 0.0865357 to 0.0865357
Heightened Def Con from 0.0865357 to 0.0865357
Heightened Def Con from 0.0865357 to 0.0865357
Heightened Def Con from 0.0865357 to 0.0865357
Heightened Def Con from 0.0865357 to 0.0865357
Heightened Def Con from 0.0865357 to 0.0865357
Heightened Def Con from 0.0865357 to 0.0865357
Heightened Def Con from 0.0865357 to 0.0865357
Heightened Def Con from 0.0865357 to 0.0865357
Heightened Def Con from 0.0865357 to 0.0865357
Heightened Def Con from 0.0865357 to 0.0865357
Heightened Def Con from 0.0865357 to 0.0865357
Heightened Def Con from 0.0865357 to 0.0865357
Heightened Def Con from 0.0865357 to 0.0865357
Heightened Def Con from 0.0865357 to 0.0865357
Heightened Def Con from 0.0865357 to 0.0865357
Heightened Def Con from 0.0865357 to 0.0865357
Heightened Def Con from 0.0865357 to 0.0865357
Heightened Def Con from 0.0865357 to 0.0865357
Heightened Def Con from 0.0865357 to 0.0865357
Heightened Def Con from 0.0865357 to 0.0865357
Heightened Def Con from 0.0865357 to 0.0865357
Heightened Def Con from 0.0865357 to 0.0865357
Heightened Def Con from 0.0865357 to 0.0865357
Heightened Def Con from 0.0865357 to 0.0865357
Heightened Def Con from 0.0865357 to 0.0865357
Heightened Def Con from 0.0865357 to 0.0865357
Heightened Def Con from 0.0865357 to 0.0865357
Heightened Def Con from 0.0865357 to 0.0865357
Heightened Def Con from 0.0865357 to 0.0865357
Heightened Def Con from 0.0865357 to 0.0865357
Heightened Def Con from 0.0865357 to 0.0865357
Heightened Def Con from 0.0865357 to 0.0865357
Heightened Def Con from 0.0865357 to 0.0865357
Heightened Def Con from 0.0865357 to 0.0865357
Heightened Def Con from 0.0865357 to 0.0865357
Heightened Def Con from 0.0865357 to 0.0865357
Heightened Def Con from 0.0865357 to 0.0865357
Heightened Def Con from 0.0865357 to 0.0865357
Heightened Def Con from 0.0865357 to 0.0865357
Heightened Def Con from 0.0865357 to 0.0865357
Heightened Def Con from 0.0865357 to 0.0865357
Heightened Def Con from 0.0865357 to 0.0865357
Heightened Def Con from 0.0865357 to 0.0865357
Heightened Def Con from 0.0865357 to 0.0865357
Heightened Def Con from 0.0865357 to 0.0865357
Heightened Def Con from 0.0865357 to 0.0865357
Heightened Def Con from 0.0865357 to 0.0865357
Heightened Def Con from 0.0865357 to 0.0865357
Heightened Def Con from 0.0865357 to 0.0865357
Heightened Def Con from 0.0865357 to 0.0865357
Heightened Def Con from 0.0865357 to 0.0865357
Heightened Def Con from 0.0865357 to 0.0865357
Heightened Def Con from 0.0865357 to 0.0865357
Heightened Def Con from 0.0865357 to 0.0865357
Heightened Def Con from 0.0865357 to 0.0865357
Heightened Def Con from 0.0865357 to 0.0865357
Heightened Def Con from 0.0865357 to 0.0865357
Heightened Def Con from 0.0865357 to 0.0865357
Heightened Def Con from 0.0865357 to 0.0865357
Heightened Def Con from 0.0865357 to 0.0865357
Heightened Def Con from 0.0865357 to 0.0865357
Heightened Def Con from 0.0865357 to 0.0865357
Heightened Def Con from 0.0865357 to 0.0865357
Heightened Def Con from 0.0865357 to 0.0865357
Heightened Def Con from 0.0865357 to 0.0865357
Heightened Def Con from 0.0865357 to 0.0865357
Heightened Def Con from 0.0865357 to 0.0865357
Heightened Def Con from 0.0865357 to 0.0865357
Heightened Def Con from 0.0865357 to 0.0865357
Heightened Def Con from 0.0865357 to 0.0865357
Heightened Def Con from 0.0865357 to 0.0865357
Heightened Def Con from 0.0865357 to 0.0865357
Heightened Def Con from 0.0865357 to 0.0865357
Heightened Def Con from 0.0865357 to 0.0865357
Heightened Def Con from 0.0865357 to 0.0865357
Heightened Def Con from 0.0865357 to 0.0865357
Heightened Def Con from 0.0865357 to 0.0865357
Heightened Def Con from 0.0865357 to 0.0865357
Heightened Def Con from 0.0865357 to 0.0865357
Heightened Def Con from 0.0865357 to 0.0865357
Heightened Def Con from 0.0865357 to 0.0865357
Heightened Def Con from 0.0865357 to 0.0865357
Heightened Def Con from 0.0865357 to 0.0865357
Heightened Def Con from 0.0865357 to 0.0865357
Heightened Def Con from 0.0865357 to 0.0865357
Heightened Def Con from 0.0865357 to 0.0865357
Heightened Def Con from 0.0865357 to 0.0865357
Heightened Def Con from 0.0865357 to 0.0865357
Heightened Def Con from 0.0865357 to 0.0865357
Heightened Def Con from 0.0865357 to 0.0865357
Heightened Def Con from 0.0865357 to 0.0865357
Heightened Def Con from 0.0865357 to 0.0865358
Heightened Def Con from 0.0865358 to 0.0865358
Heightened Def Con from 0.0865358 to 0.0865358
Heightened Def Con from 0.0865358 to 0.0865358
Heightened Def Con from 0.0865358 to 0.0865358
Heightened Def Con from 0.0865358 to 0.0865358
Heightened Def Con from 0.0865358 to 0.0865358
Heightened Def Con from 0.0865358 to 0.0865358
Heightened Def Con from 0.0865358 to 0.0865358
Heightened Def Con from 0.0865358 to 0.0865358
Heightened Def Con from 0.0865358 to 0.0865358
Heightened Def Con from 0.0865358 to 0.0865358
Heightened Def Con from 0.0865358 to 0.0865358
Heightened Def Con from 0.0865358 to 0.0865358
Heightened Def Con from 0.0865358 to 0.0865358
Heightened Def Con from 0.0865358 to 0.0865358
Heightened Def Con from 0.0865358 to 0.0865358
Heightened Def Con from 0.0865358 to 0.0865358
Heightened Def Con from 0.0865358 to 0.0865358
Heightened Def Con from 0.0865358 to 0.0865358
Heightened Def Con from 0.0865358 to 0.0865358
Heightened Def Con from 0.0865358 to 0.0865358
Heightened Def Con from 0.0865358 to 0.0865358
Heightened Def Con from 0.0865358 to 0.0865358
Heightened Def Con from 0.0865358 to 0.0865358
Heightened Def Con from 0.0865358 to 0.0865358
Heightened Def Con from 0.0865358 to 0.0865358
Heightened Def Con from 0.0865358 to 0.0865358
Heightened Def Con from 0.0865358 to 0.0865358
Heightened Def Con from 0.0865358 to 0.0865358
Heightened Def Con from 0.0865358 to 0.0865358
Heightened Def Con from 0.0865358 to 0.0865358
Heightened Def Con from 0.0865358 to 0.0865358
Heightened Def Con from 0.0865358 to 0.0865358
Heightened Def Con from 0.0865358 to 0.0865358
Heightened Def Con from 0.0865358 to 0.0865358
Heightened Def Con from 0.0865358 to 0.0865358
Heightened Def Con from 0.0865358 to 0.0865358
Heightened Def Con from 0.0865358 to 0.0865358
Heightened Def Con from 0.0865358 to 0.0865358
Heightened Def Con from 0.0865358 to 0.0865358
Heightened Def Con from 0.0865358 to 0.0865358
Heightened Def Con from 0.0865358 to 0.0865358
Heightened Def Con from 0.0865358 to 0.0865358
Heightened Def Con from 0.0865358 to 0.0865358
Heightened Def Con from 0.0865358 to 0.0865358
Heightened Def Con from 0.0865358 to 0.0865358
Heightened Def Con from 0.0865358 to 0.0865358
Heightened Def Con from 0.0865358 to 0.0865358
Heightened Def Con from 0.0865358 to 0.0865358
Heightened Def Con from 0.0865358 to 0.0865358
Heightened Def Con from 0.0865358 to 0.0865358
Heightened Def Con from 0.0865358 to 0.0865358
Heightened Def Con from 0.0865358 to 0.0865358
Heightened Def Con from 0.0865358 to 0.0865358
Heightened Def Con from 0.0865358 to 0.0865358
Heightened Def Con from 0.0865358 to 0.0865358
Heightened Def Con from 0.0865358 to 0.0865358
Heightened Def Con from 0.0865358 to 0.0865358
Heightened Def Con from 0.0865358 to 0.0865358
Heightened Def Con from 0.0865358 to 0.0865358
Heightened Def Con from 0.0865358 to 0.0865358
Heightened Def Con from 0.0865358 to 0.0865358
Heightened Def Con from 0.0865358 to 0.0865358
Heightened Def Con from 0.0865358 to 0.0865358
Heightened Def Con from 0.0865358 to 0.0865358
Heightened Def Con from 0.0865358 to 0.0865358
Heightened Def Con from 0.0865358 to 0.0865358
Heightened Def Con from 0.0865358 to 0.0865358
Heightened Def Con from 0.0865358 to 0.0865358
Heightened Def Con from 0.0865358 to 0.0865358
Heightened Def Con from 0.0865358 to 0.0865358
Heightened Def Con from 0.0865358 to 0.0865358
Heightened Def Con from 0.0865358 to 0.0865358
Heightened Def Con from 0.0865358 to 0.0865358
Heightened Def Con from 0.0865358 to 0.0865358
Heightened Def Con from 0.0865358 to 0.0865358
Heightened Def Con from 0.0865358 to 0.0865358
Heightened Def Con from 0.0865358 to 0.0865358
Heightened Def Con from 0.0865358 to 0.0865358
Heightened Def Con from 0.0865358 to 0.0865358
Heightened Def Con from 0.0865358 to 0.0865358
Heightened Def Con from 0.0865358 to 0.0865358
Heightened Def Con from 0.0865358 to 0.0865358
Heightened Def Con from 0.0865358 to 0.0865358
Heightened Def Con from 0.0865358 to 0.0865358
Heightened Def Con from 0.0865358 to 0.0865358
Heightened Def Con from 0.0865358 to 0.0865358
Heightened Def Con from 0.0865358 to 0.0865358
Heightened Def Con from 0.0865358 to 0.0865358
Heightened Def Con from 0.0865358 to 0.0865358
Heightened Def Con from 0.0865358 to 0.0865358
Heightened Def Con from 0.0865358 to 0.0865358
Heightened Def Con from 0.0865358 to 0.0865358
Heightened Def Con from 0.0865358 to 0.0865358
Heightened Def Con from 0.0865358 to 0.0865358
Heightened Def Con from 0.0865358 to 0.0865358
Heightened Def Con from 0.0865358 to 0.0865358
Heightened Def Con from 0.0865358 to 0.0865358
Heightened Def Con from 0.0865358 to 0.0865358
Heightened Def Con from 0.0865358 to 0.0865358
Heightened Def Con from 0.0865358 to 0.0865358
Heightened Def Con from 0.0865358 to 0.0865358
Heightened Def Con from 0.0865358 to 0.0865358
Heightened Def Con from 0.0865358 to 0.0865358
Heightened Def Con from 0.0865358 to 0.0865358
Heightened Def Con from 0.0865358 to 0.0865358
Heightened Def Con from 0.0865358 to 0.0865358
Heightened Def Con from 0.0865358 to 0.0865358
Heightened Def Con from 0.0865358 to 0.0865358
Heightened Def Con from 0.0865358 to 0.0865358
Heightened Def Con from 0.0865358 to 0.0865358
Heightened Def Con from 0.0865358 to 0.0865358
Heightened Def Con from 0.0865358 to 0.0865358
Heightened Def Con from 0.0865358 to 0.0865358
Heightened Def Con from 0.0865358 to 0.0865358
Heightened Def Con from 0.0865358 to 0.0865358
Heightened Def Con from 0.0865358 to 0.0865358
Heightened Def Con from 0.0865358 to 0.0865358
Heightened Def Con from 0.0865358 to 0.0865358
Heightened Def Con from 0.0865358 to 0.0865358
Heightened Def Con from 0.0865358 to 0.0865358
Heightened Def Con from 0.0865358 to 0.0865358
Heightened Def Con from 0.0865358 to 0.0865358
Heightened Def Con from 0.0865358 to 0.0865358
Heightened Def Con from 0.0865358 to 0.0865358
Heightened Def Con from 0.0865358 to 0.0865358
Heightened Def Con from 0.0865358 to 0.0865358
Heightened Def Con from 0.0865358 to 0.0865358
Heightened Def Con from 0.0865358 to 0.0865358
Heightened Def Con from 0.0865358 to 0.0865358
Heightened Def Con from 0.0865358 to 0.0865358
Heightened Def Con from 0.0865358 to 0.0865358
Heightened Def Con from 0.0865358 to 0.0865358
Heightened Def Con from 0.0865358 to 0.0865359
Heightened Def Con from 0.0865359 to 0.0865359
Heightened Def Con from 0.0865359 to 0.0865359
Heightened Def Con from 0.0865359 to 0.0865359
Heightened Def Con from 0.0865359 to 0.0865359
Heightened Def Con from 0.0865359 to 0.0865359
Heightened Def Con from 0.0865359 to 0.0865359
Heightened Def Con from 0.0865359 to 0.0865359
Heightened Def Con from 0.0865359 to 0.0865359
Heightened Def Con from 0.0865359 to 0.0865359
Heightened Def Con from 0.0865359 to 0.0865359
Heightened Def Con from 0.0865359 to 0.0865359
Heightened Def Con from 0.0865359 to 0.0865359
Heightened Def Con from 0.0865359 to 0.0865359
Heightened Def Con from 0.0865359 to 0.0865359
Heightened Def Con from 0.0865359 to 0.0865359
Heightened Def Con from 0.0865359 to 0.0865359
Heightened Def Con from 0.0865359 to 0.0865359
Heightened Def Con from 0.0865359 to 0.0865359
Heightened Def Con from 0.0865359 to 0.0865359
Heightened Def Con from 0.0865359 to 0.0865359
Heightened Def Con from 0.0865359 to 0.0865359
Heightened Def Con from 0.0865359 to 0.0865359
Heightened Def Con from 0.0865359 to 0.0865359
Heightened Def Con from 0.0865359 to 0.0865359
Heightened Def Con from 0.0865359 to 0.0865359
Heightened Def Con from 0.0865359 to 0.0865359
Heightened Def Con from 0.0865359 to 0.0865359
Heightened Def Con from 0.0865359 to 0.0865359
Heightened Def Con from 0.0865359 to 0.0865359
Heightened Def Con from 0.0865359 to 0.0865359
Heightened Def Con from 0.0865359 to 0.0865359
Heightened Def Con from 0.0865359 to 0.0865359
Heightened Def Con from 0.0865359 to 0.0865359
Heightened Def Con from 0.0865359 to 0.0865359
Heightened Def Con from 0.0865359 to 0.0865359
Heightened Def Con from 0.0865359 to 0.0865359
Heightened Def Con from 0.0865359 to 0.0865359
Heightened Def Con from 0.0865359 to 0.0865359
Heightened Def Con from 0.0865359 to 0.0865359
Heightened Def Con from 0.0865359 to 0.0865359
Heightened Def Con from 0.0865359 to 0.0865359
Heightened Def Con from 0.0865359 to 0.0865359
Heightened Def Con from 0.0865359 to 0.0865359
Heightened Def Con from 0.0865359 to 0.0865359
Heightened Def Con from 0.0865359 to 0.0865359
Heightened Def Con from 0.0865359 to 0.0865359
Heightened Def Con from 0.0865359 to 0.0865359
Heightened Def Con from 0.0865359 to 0.0865359
Heightened Def Con from 0.0865359 to 0.0865359
Heightened Def Con from 0.0865359 to 0.0865359
Heightened Def Con from 0.0865359 to 0.0865359
Heightened Def Con from 0.0865359 to 0.0865359
Heightened Def Con from 0.0865359 to 0.0865359
Heightened Def Con from 0.0865359 to 0.0865359
Heightened Def Con from 0.0865359 to 0.0865359
Heightened Def Con from 0.0865359 to 0.0865359
Heightened Def Con from 0.0865359 to 0.0865359
Heightened Def Con from 0.0865359 to 0.0865359
Heightened Def Con from 0.0865359 to 0.0865359
Heightened Def Con from 0.0865359 to 0.0865359
Heightened Def Con from 0.0865359 to 0.0865359
Heightened Def Con from 0.0865359 to 0.0865359
Heightened Def Con from 0.0865359 to 0.0865359
Heightened Def Con from 0.0865359 to 0.0865359
Heightened Def Con from 0.0865359 to 0.0865359
Heightened Def Con from 0.0865359 to 0.0865359
Heightened Def Con from 0.0865359 to 0.0865359
Heightened Def Con from 0.0865359 to 0.0865359
Heightened Def Con from 0.0865359 to 0.0865359
Heightened Def Con from 0.0865359 to 0.0865359
Heightened Def Con from 0.0865359 to 0.0865359
Heightened Def Con from 0.0865359 to 0.0865359
Heightened Def Con from 0.0865359 to 0.0865359
Heightened Def Con from 0.0865359 to 0.0865359
Heightened Def Con from 0.0865359 to 0.0865359
Heightened Def Con from 0.0865359 to 0.0865359
Heightened Def Con from 0.0865359 to 0.0865359
Heightened Def Con from 0.0865359 to 0.0865359
Heightened Def Con from 0.0865359 to 0.0865359
Heightened Def Con from 0.0865359 to 0.0865359
Heightened Def Con from 0.0865359 to 0.0865359
Heightened Def Con from 0.0865359 to 0.0865359
Heightened Def Con from 0.0865359 to 0.0865359
Heightened Def Con from 0.0865359 to 0.0865359
Heightened Def Con from 0.0865359 to 0.0865359
Heightened Def Con from 0.0865359 to 0.0865359
Heightened Def Con from 0.0865359 to 0.0865359
Heightened Def Con from 0.0865359 to 0.0865359
Heightened Def Con from 0.0865359 to 0.0865359
Heightened Def Con from 0.0865359 to 0.0865359
Heightened Def Con from 0.0865359 to 0.0865359
Heightened Def Con from 0.0865359 to 0.0865359
Heightened Def Con from 0.0865359 to 0.0865359
Heightened Def Con from 0.0865359 to 0.0865359
Heightened Def Con from 0.0865359 to 0.0865359
Heightened Def Con from 0.0865359 to 0.0865359
Heightened Def Con from 0.0865359 to 0.0865359
Heightened Def Con from 0.0865359 to 0.0865359
Heightened Def Con from 0.0865359 to 0.0865359
Heightened Def Con from 0.0865359 to 0.0865359
Heightened Def Con from 0.0865359 to 0.0865359
Heightened Def Con from 0.0865359 to 0.0865359
Heightened Def Con from 0.0865359 to 0.0865359
Heightened Def Con from 0.0865359 to 0.0865359
Heightened Def Con from 0.0865359 to 0.0865359
Heightened Def Con from 0.0865359 to 0.0865359
Heightened Def Con from 0.0865359 to 0.0865359
Heightened Def Con from 0.0865359 to 0.0865359
Heightened Def Con from 0.0865359 to 0.0865359
Heightened Def Con from 0.0865359 to 0.0865359
Heightened Def Con from 0.0865359 to 0.0865359
Heightened Def Con from 0.0865359 to 0.0865359
Heightened Def Con from 0.0865359 to 0.0865359
Heightened Def Con from 0.0865359 to 0.0865359
Heightened Def Con from 0.0865359 to 0.0865359
Heightened Def Con from 0.0865359 to 0.0865359
Heightened Def Con from 0.0865359 to 0.0865359
Heightened Def Con from 0.0865359 to 0.0865359
Heightened Def Con from 0.0865359 to 0.0865359
Heightened Def Con from 0.0865359 to 0.0865359
Heightened Def Con from 0.0865359 to 0.0865359
Heightened Def Con from 0.0865359 to 0.0865359
Heightened Def Con from 0.0865359 to 0.0865359
Heightened Def Con from 0.0865359 to 0.0865359
Heightened Def Con from 0.0865359 to 0.0865359
Heightened Def Con from 0.0865359 to 0.0865359
Heightened Def Con from 0.0865359 to 0.0865359
Heightened Def Con from 0.0865359 to 0.0865359
Heightened Def Con from 0.0865359 to 0.0865359
Heightened Def Con from 0.0865359 to 0.0865359
Heightened Def Con from 0.0865359 to 0.0865359
Heightened Def Con from 0.0865359 to 0.0865359
Heightened Def Con from 0.0865359 to 0.0865359
Heightened Def Con from 0.0865359 to 0.0865359
Heightened Def Con from 0.0865359 to 0.0865359
Heightened Def Con from 0.0865359 to 0.0865359
Heightened Def Con from 0.0865359 to 0.0865359
Heightened Def Con from 0.0865359 to 0.0865359
Heightened Def Con from 0.0865359 to 0.086536
Heightened Def Con from 0.086536 to 0.086536
Heightened Def Con from 0.086536 to 0.086536
Heightened Def Con from 0.086536 to 0.086536
Heightened Def Con from 0.086536 to 0.086536
Heightened Def Con from 0.086536 to 0.086536
Heightened Def Con from 0.086536 to 0.086536
Heightened Def Con from 0.086536 to 0.086536
Heightened Def Con from 0.086536 to 0.086536
Heightened Def Con from 0.086536 to 0.086536
Heightened Def Con from 0.086536 to 0.086536
Heightened Def Con from 0.086536 to 0.086536
Heightened Def Con from 0.086536 to 0.086536
Heightened Def Con from 0.086536 to 0.086536
Heightened Def Con from 0.086536 to 0.086536
Heightened Def Con from 0.086536 to 0.086536
Heightened Def Con from 0.086536 to 0.086536
Heightened Def Con from 0.086536 to 0.086536
Heightened Def Con from 0.086536 to 0.086536
Heightened Def Con from 0.086536 to 0.086536
Heightened Def Con from 0.086536 to 0.086536
Heightened Def Con from 0.086536 to 0.086536
Heightened Def Con from 0.086536 to 0.086536
Heightened Def Con from 0.086536 to 0.086536
Heightened Def Con from 0.086536 to 0.086536
Heightened Def Con from 0.086536 to 0.086536
Heightened Def Con from 0.086536 to 0.086536
Heightened Def Con from 0.086536 to 0.086536
Heightened Def Con from 0.086536 to 0.086536
Heightened Def Con from 0.086536 to 0.086536
Heightened Def Con from 0.086536 to 0.086536
Heightened Def Con from 0.086536 to 0.086536
Heightened Def Con from 0.086536 to 0.086536
Heightened Def Con from 0.086536 to 0.086536
Heightened Def Con from 0.086536 to 0.086536
Heightened Def Con from 0.086536 to 0.086536
Heightened Def Con from 0.086536 to 0.086536
Heightened Def Con from 0.086536 to 0.086536
Heightened Def Con from 0.086536 to 0.086536
Heightened Def Con from 0.086536 to 0.086536
Heightened Def Con from 0.086536 to 0.086536
Heightened Def Con from 0.086536 to 0.086536
Heightened Def Con from 0.086536 to 0.086536
Heightened Def Con from 0.086536 to 0.086536
Heightened Def Con from 0.086536 to 0.086536
Heightened Def Con from 0.086536 to 0.086536
[...]
Heightened Def Con from 0.0865462 to 0.0865462
Heightened Def Con from 0.0865462 to 0.0865462
Heightened Def Con from 0.0865462 to 0.0865462
Heightened Def Con from 0.0865462 to 0.0865462
Heightened Def Con from 0.0865462 to 0.0865462
Heightened Def Con from 0.0865462 to 0.0865462
Heightened Def Con from 0.0865462 to 0.0865462
Heightened Def Con from 0.0865462 to 0.0865462
Heightened Def Con from 0.0865462 to 0.0865462
Heightened Def Con from 0.0865462 to 0.0865462
Heightened Def Con from 0.0865462 to 0.0865462
Heightened Def Con from 0.0865462 to 0.0865462
Heightened Def Con from 0.0865462 to 0.0865462
Heightened Def Con from 0.0865462 to 0.0865462
Heightened Def Con from 0.0865462 to 0.0865462
Heightened Def Con from 0.0865462 to 0.0865462
Heightened Def Con from 0.0865462 to 0.0865462
Heightened Def Con from 0.0865462 to 0.0865462
Heightened Def Con from 0.0865462 to 0.0865462
Heightened Def Con from 0.0865462 to 0.0865462
Heightened Def Con from 0.0865462 to 0.0865462
Heightened Def Con from 0.0865462 to 0.0865462
Heightened Def Con from 0.0865462 to 0.0865462
Heightened Def Con from 0.0865462 to 0.0865462
Heightened Def Con from 0.0865462 to 0.0865462
Heightened Def Con from 0.0865462 to 0.0865462
Heightened Def Con from 0.0865462 to 0.0865462
Heightened Def Con from 0.0865462 to 0.0865462
Heightened Def Con from 0.0865462 to 0.0865462
Heightened Def Con from 0.0865462 to 0.0865462
Heightened Def Con from 0.0865462 to 0.0865462
Heightened Def Con from 0.0865462 to 0.0865462
Heightened Def Con from 0.0865462 to 0.0865462
Heightened Def Con from 0.0865462 to 0.0865462
Heightened Def Con from 0.0865462 to 0.0865462
Heightened Def Con from 0.0865462 to 0.0865462
Heightened Def Con from 0.0865462 to 0.0865463
Heightened Def Con from 0.0865463 to 0.0865463
Heightened Def Con from 0.0865463 to 0.0865463
Heightened Def Con from 0.0865463 to 0.0865463
Heightened Def Con from 0.0865463 to 0.0865463
Heightened Def Con from 0.0865463 to 0.0865463
Heightened Def Con from 0.0865463 to 0.0865463
Heightened Def Con from 0.0865463 to 0.0865463
Heightened Def Con from 0.0865463 to 0.0865463
Heightened Def Con from 0.0865463 to 0.0865463
Heightened Def Con from 0.0865463 to 0.0865463
Heightened Def Con from 0.0865463 to 0.0865463
Heightened Def Con from 0.0865463 to 0.0865463
Heightened Def Con from 0.0865463 to 0.0865463
Heightened Def Con from 0.0865463 to 0.0865463
Heightened Def Con from 0.0865463 to 0.0865463
Heightened Def Con from 0.0865463 to 0.0865463
Heightened Def Con from 0.0865463 to 0.0865463
Heightened Def Con from 0.0865463 to 0.0865463
Heightened Def Con from 0.0865463 to 0.0865463
Heightened Def Con from 0.0865463 to 0.0865463
Heightened Def Con from 0.0865463 to 0.0865463
Heightened Def Con from 0.0865463 to 0.0865463
Heightened Def Con from 0.0865463 to 0.0865463
Heightened Def Con from 0.0865463 to 0.0865463
Heightened Def Con from 0.0865463 to 0.0865463
Heightened Def Con from 0.0865463 to 0.0865463
Heightened Def Con from 0.0865463 to 0.0865463
Heightened Def Con from 0.0865463 to 0.0865463
Heightened Def Con from 0.0865463 to 0.0865463
Heightened Def Con from 0.0865463 to 0.0865463
Heightened Def Con from 0.0865463 to 0.0865463
Heightened Def Con from 0.0865463 to 0.0865463
Heightened Def Con from 0.0865463 to 0.0865463
Heightened Def Con from 0.0865463 to 0.0865463
Heightened Def Con from 0.0865463 to 0.0865463
Heightened Def Con from 0.0865463 to 0.0865463
Heightened Def Con from 0.0865463 to 0.0865463
Heightened Def Con from 0.0865463 to 0.0865463
Heightened Def Con from 0.0865463 to 0.0865463
Heightened Def Con from 0.0865463 to 0.0865463
Heightened Def Con from 0.0865463 to 0.0865463
Heightened Def Con from 0.0865463 to 0.0865463
Heightened Def Con from 0.0865463 to 0.0865463
Heightened Def Con from 0.0865463 to 0.0865463
Heightened Def Con from 0.0865463 to 0.0865463
Heightened Def Con from 0.0865463 to 0.0865463
Heightened Def Con from 0.0865463 to 0.0865463
Heightened Def Con from 0.0865463 to 0.0865463
Heightened Def Con from 0.0865463 to 0.0865463
Heightened Def Con from 0.0865463 to 0.0865463
Heightened Def Con from 0.0865463 to 0.0865463
Heightened Def Con from 0.0865463 to 0.0865463
Heightened Def Con from 0.0865463 to 0.0865463
Heightened Def Con from 0.0865463 to 0.0865463
Heightened Def Con from 0.0865463 to 0.0865463
Heightened Def Con from 0.0865463 to 0.0865463
Heightened Def Con from 0.0865463 to 0.0865463
Heightened Def Con from 0.0865463 to 0.0865463
Heightened Def Con from 0.0865463 to 0.0865463
Heightened Def Con from 0.0865463 to 0.0865463
Heightened Def Con from 0.0865463 to 0.0865463
Heightened Def Con from 0.0865463 to 0.0865463
Heightened Def Con from 0.0865463 to 0.0865463
Heightened Def Con from 0.0865463 to 0.0865463
Heightened Def Con from 0.0865463 to 0.0865463
Heightened Def Con from 0.0865463 to 0.0865463
Heightened Def Con from 0.0865463 to 0.0865463
Heightened Def Con from 0.0865463 to 0.0865463
Heightened Def Con from 0.0865463 to 0.0865463
Heightened Def Con from 0.0865463 to 0.0865463
Heightened Def Con from 0.0865463 to 0.0865463
Heightened Def Con from 0.0865463 to 0.0865463
Heightened Def Con from 0.0865463 to 0.0865463
Heightened Def Con from 0.0865463 to 0.0865463
Heightened Def Con from 0.0865463 to 0.0865463
Heightened Def Con from 0.0865463 to 0.0865463
Heightened Def Con from 0.0865463 to 0.0865463
Heightened Def Con from 0.0865463 to 0.0865463
Heightened Def Con from 0.0865463 to 0.0865463
Heightened Def Con from 0.0865463 to 0.0865463
Heightened Def Con from 0.0865463 to 0.0865463
Heightened Def Con from 0.0865463 to 0.0865463
Heightened Def Con from 0.0865463 to 0.0865463
Heightened Def Con from 0.0865463 to 0.0865463
Heightened Def Con from 0.0865463 to 0.0865463
Heightened Def Con from 0.0865463 to 0.0865463
Heightened Def Con from 0.0865463 to 0.0865463
Heightened Def Con from 0.0865463 to 0.0865463
Heightened Def Con from 0.0865463 to 0.0865463
Heightened Def Con from 0.0865463 to 0.0865463
Heightened Def Con from 0.0865463 to 0.0865463
Heightened Def Con from 0.0865463 to 0.0865463
Heightened Def Con from 0.0865463 to 0.0865463
Heightened Def Con from 0.0865463 to 0.0865463
Heightened Def Con from 0.0865463 to 0.0865463
Heightened Def Con from 0.0865463 to 0.0865463
Heightened Def Con from 0.0865463 to 0.0865463
Heightened Def Con from 0.0865463 to 0.0865463
Heightened Def Con from 0.0865463 to 0.0865463
Heightened Def Con from 0.0865463 to 0.0865463
Heightened Def Con from 0.0865463 to 0.0865463
Heightened Def Con from 0.0865463 to 0.0865463
Heightened Def Con from 0.0865463 to 0.0865463
Heightened Def Con from 0.0865463 to 0.0865463
Heightened Def Con from 0.0865463 to 0.0865463
Heightened Def Con from 0.0865463 to 0.0865463
Heightened Def Con from 0.0865463 to 0.0865463
Heightened Def Con from 0.0865463 to 0.0865463
Heightened Def Con from 0.0865463 to 0.0865463
Heightened Def Con from 0.0865463 to 0.0865463
Heightened Def Con from 0.0865463 to 0.0865463
Heightened Def Con from 0.0865463 to 0.0865463
Heightened Def Con from 0.0865463 to 0.0865463
Heightened Def Con from 0.0865463 to 0.0865463
Heightened Def Con from 0.0865463 to 0.0865463
Heightened Def Con from 0.0865463 to 0.0865463
Heightened Def Con from 0.0865463 to 0.0865464
Heightened Def Con from 0.0865464 to 0.0865464
Heightened Def Con from 0.0865464 to 0.0865464
Heightened Def Con from 0.0865464 to 0.0865464
Heightened Def Con from 0.0865464 to 0.0865464
Heightened Def Con from 0.0865464 to 0.0865464
Heightened Def Con from 0.0865464 to 0.0865464
Heightened Def Con from 0.0865464 to 0.0865464
Heightened Def Con from 0.0865464 to 0.0865464
Heightened Def Con from 0.0865464 to 0.0865464
Heightened Def Con from 0.0865464 to 0.0865464
Heightened Def Con from 0.0865464 to 0.0865464
Heightened Def Con from 0.0865464 to 0.0865464
Heightened Def Con from 0.0865464 to 0.0865464
Heightened Def Con from 0.0865464 to 0.0865464
Heightened Def Con from 0.0865464 to 0.0865464
Heightened Def Con from 0.0865464 to 0.0865464
Heightened Def Con from 0.0865464 to 0.0865464
Heightened Def Con from 0.0865464 to 0.0865464
Heightened Def Con from 0.0865464 to 0.0865464
Heightened Def Con from 0.0865464 to 0.0865464
Heightened Def Con from 0.0865464 to 0.0865464
Heightened Def Con from 0.0865464 to 0.0865464
Heightened Def Con from 0.0865464 to 0.0865464
Heightened Def Con from 0.0865464 to 0.0865464
Heightened Def Con from 0.0865464 to 0.0865464
Heightened Def Con from 0.0865464 to 0.0865464
Heightened Def Con from 0.0865464 to 0.0865464
Heightened Def Con from 0.0865464 to 0.0865464
Heightened Def Con from 0.0865464 to 0.0865464
Heightened Def Con from 0.0865464 to 0.0865464
Heightened Def Con from 0.0865464 to 0.0865464
Heightened Def Con from 0.0865464 to 0.0865464
Heightened Def Con from 0.0865464 to 0.0865464
Heightened Def Con from 0.0865464 to 0.0865464
Heightened Def Con from 0.0865464 to 0.0865464
Heightened Def Con from 0.0865464 to 0.0865464
Heightened Def Con from 0.0865464 to 0.0865464
Heightened Def Con from 0.0865464 to 0.0865464
Heightened Def Con from 0.0865464 to 0.0865464
Heightened Def Con from 0.0865464 to 0.0865464
Heightened Def Con from 0.0865464 to 0.0865464
Heightened Def Con from 0.0865464 to 0.0865464
Heightened Def Con from 0.0865464 to 0.0865464
Heightened Def Con from 0.0865464 to 0.0865464
Heightened Def Con from 0.0865464 to 0.0865464
Heightened Def Con from 0.0865464 to 0.0865464
Heightened Def Con from 0.0865464 to 0.0865464
Heightened Def Con from 0.0865464 to 0.0865464
Heightened Def Con from 0.0865464 to 0.0865464
Heightened Def Con from 0.0865464 to 0.0865464
Heightened Def Con from 0.0865464 to 0.0865464
Heightened Def Con from 0.0865464 to 0.0865464
Heightened Def Con from 0.0865464 to 0.0865464
Heightened Def Con from 0.0865464 to 0.0865464
Heightened Def Con from 0.0865464 to 0.0865464
Heightened Def Con from 0.0865464 to 0.0865464
Heightened Def Con from 0.0865464 to 0.0865464
Heightened Def Con from 0.0865464 to 0.0865464
Heightened Def Con from 0.0865464 to 0.0865464
Heightened Def Con from 0.0865464 to 0.0865464
Heightened Def Con from 0.0865464 to 0.0865464
Heightened Def Con from 0.0865464 to 0.0865464
Heightened Def Con from 0.0865464 to 0.0865464
Heightened Def Con from 0.0865464 to 0.0865464
Heightened Def Con from 0.0865464 to 0.0865464
Heightened Def Con from 0.0865464 to 0.0865464
Heightened Def Con from 0.0865464 to 0.0865464
Heightened Def Con from 0.0865464 to 0.0865464
Heightened Def Con from 0.0865464 to 0.0865464
Heightened Def Con from 0.0865464 to 0.0865464
Heightened Def Con from 0.0865464 to 0.0865464
Heightened Def Con from 0.0865464 to 0.0865464
Heightened Def Con from 0.0865464 to 0.0865464
Heightened Def Con from 0.0865464 to 0.0865464
Heightened Def Con from 0.0865464 to 0.0865464
Heightened Def Con from 0.0865464 to 0.0865464
Heightened Def Con from 0.0865464 to 0.0865464
Heightened Def Con from 0.0865464 to 0.0865464
Heightened Def Con from 0.0865464 to 0.0865464
Heightened Def Con from 0.0865464 to 0.0865464
Heightened Def Con from 0.0865464 to 0.0865464
Heightened Def Con from 0.0865464 to 0.0865464
Heightened Def Con from 0.0865464 to 0.0865464
Heightened Def Con from 0.0865464 to 0.0865464
Heightened Def Con from 0.0865464 to 0.0865464
Heightened Def Con from 0.0865464 to 0.0865464
Heightened Def Con from 0.0865464 to 0.0865464
Heightened Def Con from 0.0865464 to 0.0865464
Heightened Def Con from 0.0865464 to 0.0865464
Heightened Def Con from 0.0865464 to 0.0865464
Heightened Def Con from 0.0865464 to 0.0865464
Heightened Def Con from 0.0865464 to 0.0865464
Heightened Def Con from 0.0865464 to 0.0865464
Heightened Def Con from 0.0865464 to 0.0865464
Heightened Def Con from 0.0865464 to 0.0865464
Heightened Def Con from 0.0865464 to 0.0865464
Heightened Def Con from 0.0865464 to 0.0865464
Heightened Def Con from 0.0865464 to 0.0865464
Heightened Def Con from 0.0865464 to 0.0865464
Heightened Def Con from 0.0865464 to 0.0865464
Heightened Def Con from 0.0865464 to 0.0865464
Heightened Def Con from 0.0865464 to 0.0865464
Heightened Def Con from 0.0865464 to 0.0865464
Heightened Def Con from 0.0865464 to 0.0865464
Heightened Def Con from 0.0865464 to 0.0865464
Heightened Def Con from 0.0865464 to 0.0865464
Heightened Def Con from 0.0865464 to 0.0865464
Heightened Def Con from 0.0865464 to 0.0865464
Heightened Def Con from 0.0865464 to 0.0865464
Heightened Def Con from 0.0865464 to 0.0865464
Heightened Def Con from 0.0865464 to 0.0865464
Heightened Def Con from 0.0865464 to 0.0865464
Heightened Def Con from 0.0865464 to 0.0865464
Heightened Def Con from 0.0865464 to 0.0865464
Heightened Def Con from 0.0865464 to 0.0865464
Heightened Def Con from 0.0865464 to 0.0865464
Heightened Def Con from 0.0865464 to 0.0865464
Heightened Def Con from 0.0865464 to 0.0865464
Heightened Def Con from 0.0865464 to 0.0865464
Heightened Def Con from 0.0865464 to 0.0865464
Heightened Def Con from 0.0865464 to 0.0865464
Heightened Def Con from 0.0865464 to 0.0865464
Heightened Def Con from 0.0865464 to 0.0865464
Heightened Def Con from 0.0865464 to 0.0865464
Heightened Def Con from 0.0865464 to 0.0865464
Heightened Def Con from 0.0865464 to 0.0865464
Heightened Def Con from 0.0865464 to 0.0865464
Heightened Def Con from 0.0865464 to 0.0865464
Heightened Def Con from 0.0865464 to 0.0865464
Heightened Def Con from 0.0865464 to 0.0865464
Heightened Def Con from 0.0865464 to 0.0865464
Heightened Def Con from 0.0865465 to 0.0865465
Heightened Def Con from 0.0865465 to 0.0865465
Heightened Def Con from 0.0865465 to 0.0865465
Heightened Def Con from 0.0865465 to 0.0865465
Heightened Def Con from 0.0865465 to 0.0865465
Heightened Def Con from 0.0865465 to 0.0865465
Heightened Def Con from 0.0865465 to 0.0865465
Heightened Def Con from 0.0865465 to 0.0865465
Heightened Def Con from 0.0865465 to 0.0865465
Heightened Def Con from 0.0865465 to 0.0865465
Heightened Def Con from 0.0865465 to 0.0865465
Heightened Def Con from 0.0865465 to 0.0865465
Heightened Def Con from 0.0865465 to 0.0865465
Heightened Def Con from 0.0865465 to 0.0865465
Heightened Def Con from 0.0865465 to 0.0865465
Heightened Def Con from 0.0865465 to 0.0865465
Heightened Def Con from 0.0865465 to 0.0865465
Heightened Def Con from 0.0865465 to 0.0865465
Heightened Def Con from 0.0865465 to 0.0865465
Heightened Def Con from 0.0865465 to 0.0865465
Heightened Def Con from 0.0865465 to 0.0865465
Heightened Def Con from 0.0865465 to 0.0865465
Heightened Def Con from 0.0865465 to 0.0865465
Heightened Def Con from 0.0865465 to 0.0865465
Heightened Def Con from 0.0865465 to 0.0865465
Heightened Def Con from 0.0865465 to 0.0865465
Heightened Def Con from 0.0865465 to 0.0865465
Heightened Def Con from 0.0865465 to 0.0865465
Heightened Def Con from 0.0865465 to 0.0865465
Heightened Def Con from 0.0865465 to 0.0865465
Heightened Def Con from 0.0865465 to 0.0865465
Heightened Def Con from 0.0865465 to 0.0865465
Heightened Def Con from 0.0865465 to 0.0865465
Heightened Def Con from 0.0865465 to 0.0865465
Heightened Def Con from 0.0865465 to 0.0865465
Heightened Def Con from 0.0865465 to 0.0865465
Heightened Def Con from 0.0865465 to 0.0865465
Heightened Def Con from 0.0865465 to 0.0865465
Heightened Def Con from 0.0865465 to 0.0865465
Heightened Def Con from 0.0865465 to 0.0865465
Heightened Def Con from 0.0865465 to 0.0865465
Heightened Def Con from 0.0865465 to 0.0865465
Heightened Def Con from 0.0865465 to 0.0865465
Heightened Def Con from 0.0865465 to 0.0865465
Heightened Def Con from 0.0865465 to 0.0865465
Heightened Def Con from 0.0865465 to 0.0865465
Heightened Def Con from 0.0865465 to 0.0865465
Heightened Def Con from 0.0865465 to 0.0865465
Heightened Def Con from 0.0865465 to 0.0865465
Heightened Def Con from 0.0865465 to 0.0865465
Heightened Def Con from 0.0865465 to 0.0865465
Heightened Def Con from 0.0865465 to 0.0865465
Heightened Def Con from 0.0865465 to 0.0865465
Heightened Def Con from 0.0865465 to 0.0865465
Heightened Def Con from 0.0865465 to 0.0865465
Heightened Def Con from 0.0865465 to 0.0865465
Heightened Def Con from 0.0865465 to 0.0865465
Heightened Def Con from 0.0865465 to 0.0865465
Heightened Def Con from 0.0865465 to 0.0865465
Heightened Def Con from 0.0865465 to 0.0865465
Heightened Def Con from 0.0865465 to 0.0865465
Heightened Def Con from 0.0865465 to 0.0865465
Heightened Def Con from 0.0865465 to 0.0865465
Heightened Def Con from 0.0865465 to 0.0865465
Heightened Def Con from 0.0865465 to 0.0865465
Heightened Def Con from 0.0865465 to 0.0865465
Heightened Def Con from 0.0865465 to 0.0865465
Heightened Def Con from 0.0865465 to 0.0865465
Heightened Def Con from 0.0865465 to 0.0865465
Heightened Def Con from 0.0865465 to 0.0865465
Heightened Def Con from 0.0865465 to 0.0865465
Heightened Def Con from 0.0865465 to 0.0865465
Heightened Def Con from 0.0865465 to 0.0865465
Heightened Def Con from 0.0865465 to 0.0865465
Heightened Def Con from 0.0865465 to 0.0865465
Heightened Def Con from 0.0865465 to 0.0865465
Heightened Def Con from 0.0865465 to 0.0865465
Heightened Def Con from 0.0865465 to 0.0865465
Heightened Def Con from 0.0865465 to 0.0865465
Heightened Def Con from 0.0865465 to 0.0865466
Heightened Def Con from 0.0865466 to 0.0865466
Heightened Def Con from 0.0865466 to 0.0865466
Heightened Def Con from 0.0865466 to 0.0865466
Heightened Def Con from 0.0865466 to 0.0865466
Heightened Def Con from 0.0865466 to 0.0865466
Heightened Def Con from 0.0865466 to 0.0865466
Heightened Def Con from 0.0865466 to 0.0865466
Heightened Def Con from 0.0865466 to 0.0865466
Heightened Def Con from 0.0865466 to 0.0865466
Heightened Def Con from 0.0865466 to 0.0865466
Heightened Def Con from 0.0865466 to 0.0865466
Heightened Def Con from 0.0865466 to 0.0865466
Heightened Def Con from 0.0865466 to 0.0865466
Heightened Def Con from 0.0865466 to 0.0865466
Heightened Def Con from 0.0865466 to 0.0865466
Heightened Def Con from 0.0865466 to 0.0865466
Heightened Def Con from 0.0865466 to 0.0865466
Heightened Def Con from 0.0865466 to 0.0865466
Heightened Def Con from 0.0865466 to 0.0865466
Heightened Def Con from 0.0865466 to 0.0865466
Heightened Def Con from 0.0865466 to 0.0865466
Heightened Def Con from 0.0865466 to 0.0865466
Heightened Def Con from 0.0865466 to 0.0865466
Heightened Def Con from 0.0865466 to 0.0865466
Heightened Def Con from 0.0865466 to 0.0865466
Heightened Def Con from 0.0865466 to 0.0865466
Heightened Def Con from 0.0865466 to 0.0865466
Heightened Def Con from 0.0865466 to 0.0865466
Heightened Def Con from 0.0865466 to 0.0865466
Heightened Def Con from 0.0865466 to 0.0865466
Heightened Def Con from 0.0865466 to 0.0865466
Heightened Def Con from 0.0865466 to 0.0865466
Heightened Def Con from 0.0865466 to 0.0865466
Heightened Def Con from 0.0865466 to 0.0865466
Heightened Def Con from 0.0865466 to 0.0865466
Heightened Def Con from 0.0865466 to 0.0865466
Heightened Def Con from 0.0865466 to 0.0865466
Heightened Def Con from 0.0865466 to 0.0865466
Heightened Def Con from 0.0865466 to 0.0865466
Heightened Def Con from 0.0865466 to 0.0865466
Heightened Def Con from 0.0865466 to 0.0865466
Heightened Def Con from 0.0865466 to 0.0865466
Heightened Def Con from 0.0865466 to 0.0865466
Heightened Def Con from 0.0865466 to 0.0865466
Heightened Def Con from 0.0865466 to 0.0865466
Heightened Def Con from 0.0865466 to 0.0865466
Heightened Def Con from 0.0865466 to 0.0865466
Heightened Def Con from 0.0865466 to 0.0865466
Heightened Def Con from 0.0865466 to 0.0865466
Heightened Def Con from 0.0865466 to 0.0865466
Heightened Def Con from 0.0865466 to 0.0865466
Heightened Def Con from 0.0865466 to 0.0865466

Date: Mon Aug 22 14:00:46 2016
Total elapsed time: 471.236 seconds.

tnom = 27
temp = 27
method = modified trap
totiter = 152655201
traniter = 152655201
tranpoints = 33590602
accept = 25111256
rejected = 8494256
matrix size = 8
fillins = 3
solver = Normal
Matrix Compiler1: 492 bytes object code size  0.2/0.1/[0.1]
Matrix Compiler2: 622 bytes object code size  0.1/0.1/[0.1]


