Circuit: * C:\Users\Han Zhang\Documents\Project Files\Project 1 - Audio Amplifier\Experimental Amplifier\Engineering Docs\Sim1.asc

Direct Newton iteration for .op point succeeded.

Date: Wed May 25 22:22:17 2016
Total elapsed time: 2.034 seconds.

tnom = 27
temp = 27
method = modified trap
totiter = 116988
traniter = 116980
tranpoints = 47505
accept = 32596
rejected = 14909
matrix size = 49
fillins = 28
solver = Normal
Matrix Compiler1: 5.83 KB object code size  1.0/0.5/[0.3]
Matrix Compiler2: 5.21 KB object code size  0.5/0.6/[0.4]


